
#======================================================================
# CRYSTAL DATA
#----------------------------------------------------------------------
data_VESTA_phase_1

_chemical_name_common                  '"Co64 Bi64 O192"'
_cell_length_a                         45.259956
_cell_length_b                         15.068948
_cell_length_c                         19.231039
_cell_angle_alpha                      92.047981
_cell_angle_beta                       87.923233
_cell_angle_gamma                      90.591911
_cell_volume                           13098.428344
_space_group_name_H-M_alt              'P 1'
_space_group_IT_number                 1

loop_
_space_group_symop_operation_xyz
   'x, y, z'

loop_
   _atom_site_label
   _atom_site_occupancy
   _atom_site_fract_x
   _atom_site_fract_y
   _atom_site_fract_z
   _atom_site_adp_type
   _atom_site_U_iso_or_equiv
   _atom_site_type_symbol
   Co1        1.0     0.041942     0.124162     0.144070    Uiso  ? Co
   Co1        1.0     0.375275     0.124162     0.144070    Uiso  ? Co
   Co1        1.0     0.708608     0.124162     0.144070    Uiso  ? Co
   Co2        1.0     0.041941     0.124162     0.394070    Uiso  ? Co
   Co2        1.0     0.375275     0.124162     0.394070    Uiso  ? Co
   Co2        1.0     0.708608     0.124162     0.394070    Uiso  ? Co
   Co3        1.0     0.041941     0.124162     0.644071    Uiso  ? Co
   Co3        1.0     0.375275     0.124162     0.644071    Uiso  ? Co
   Co3        1.0     0.708608     0.124162     0.644071    Uiso  ? Co
   Co4        1.0     0.041942     0.124161     0.894071    Uiso  ? Co
   Co4        1.0     0.375275     0.124161     0.894071    Uiso  ? Co
   Co4        1.0     0.708608     0.124161     0.894071    Uiso  ? Co
   Co5        1.0     0.041942     0.374162     0.144070    Uiso  ? Co
   Co5        1.0     0.375275     0.374162     0.144070    Uiso  ? Co
   Co5        1.0     0.708608     0.374162     0.144070    Uiso  ? Co
   Co6        1.0     0.041942     0.374162     0.394070    Uiso  ? Co
   Co6        1.0     0.375275     0.374162     0.394070    Uiso  ? Co
   Co6        1.0     0.708608     0.374162     0.394070    Uiso  ? Co
   Co7        1.0     0.041942     0.374162     0.644070    Uiso  ? Co
   Co7        1.0     0.375275     0.374162     0.644070    Uiso  ? Co
   Co7        1.0     0.708608     0.374162     0.644070    Uiso  ? Co
   Co8        1.0     0.041942     0.374161     0.894070    Uiso  ? Co
   Co8        1.0     0.375275     0.374161     0.894070    Uiso  ? Co
   Co8        1.0     0.708608     0.374161     0.894070    Uiso  ? Co
   Co9        1.0     0.041941     0.624162     0.144070    Uiso  ? Co
   Co9        1.0     0.375275     0.624162     0.144070    Uiso  ? Co
   Co9        1.0     0.708608     0.624162     0.144070    Uiso  ? Co
   Co10       1.0     0.041941     0.624162     0.394070    Uiso  ? Co
   Co10       1.0     0.375275     0.624162     0.394070    Uiso  ? Co
   Co10       1.0     0.708608     0.624162     0.394070    Uiso  ? Co
   Co11       1.0     0.041942     0.624162     0.644070    Uiso  ? Co
   Co11       1.0     0.375275     0.624162     0.644070    Uiso  ? Co
   Co11       1.0     0.708608     0.624162     0.644070    Uiso  ? Co
   Co12       1.0     0.041942     0.624162     0.894071    Uiso  ? Co
   Co12       1.0     0.375275     0.624162     0.894071    Uiso  ? Co
   Co12       1.0     0.708608     0.624162     0.894071    Uiso  ? Co
   Co13       1.0     0.041942     0.874162     0.144070    Uiso  ? Co
   Co13       1.0     0.375275     0.874162     0.144070    Uiso  ? Co
   Co13       1.0     0.708608     0.874162     0.144070    Uiso  ? Co
   Co14       1.0     0.041941     0.874162     0.394070    Uiso  ? Co
   Co14       1.0     0.375275     0.874162     0.394070    Uiso  ? Co
   Co14       1.0     0.708608     0.874162     0.394070    Uiso  ? Co
   Co15       1.0     0.041941     0.874162     0.644070    Uiso  ? Co
   Co15       1.0     0.375275     0.874162     0.644070    Uiso  ? Co
   Co15       1.0     0.708608     0.874162     0.644070    Uiso  ? Co
   Co16       1.0     0.041942     0.874162     0.894071    Uiso  ? Co
   Co16       1.0     0.375275     0.874162     0.894071    Uiso  ? Co
   Co16       1.0     0.708608     0.874162     0.894071    Uiso  ? Co
   Co17       1.0     0.125275     0.124162     0.144070    Uiso  ? Co
   Co17       1.0     0.458608     0.124162     0.144070    Uiso  ? Co
   Co17       1.0     0.791942     0.124162     0.144070    Uiso  ? Co
   Co18       1.0     0.125275     0.124162     0.394070    Uiso  ? Co
   Co18       1.0     0.458608     0.124162     0.394070    Uiso  ? Co
   Co18       1.0     0.791941     0.124162     0.394070    Uiso  ? Co
   Co19       1.0     0.125275     0.124162     0.644070    Uiso  ? Co
   Co19       1.0     0.458608     0.124162     0.644070    Uiso  ? Co
   Co19       1.0     0.791941     0.124162     0.644070    Uiso  ? Co
   Co20       1.0     0.125275     0.124162     0.894070    Uiso  ? Co
   Co20       1.0     0.458608     0.124162     0.894070    Uiso  ? Co
   Co20       1.0     0.791942     0.124162     0.894070    Uiso  ? Co
   Co21       1.0     0.125275     0.374162     0.144070    Uiso  ? Co
   Co21       1.0     0.458608     0.374162     0.144070    Uiso  ? Co
   Co21       1.0     0.791942     0.374162     0.144070    Uiso  ? Co
   Co22       1.0     0.125275     0.374162     0.394070    Uiso  ? Co
   Co22       1.0     0.458608     0.374162     0.394070    Uiso  ? Co
   Co22       1.0     0.791942     0.374162     0.394070    Uiso  ? Co
   Co23       1.0     0.125275     0.374162     0.644070    Uiso  ? Co
   Co23       1.0     0.458608     0.374162     0.644070    Uiso  ? Co
   Co23       1.0     0.791942     0.374162     0.644070    Uiso  ? Co
   Co24       1.0     0.125275     0.374162     0.894071    Uiso  ? Co
   Co24       1.0     0.458608     0.374162     0.894071    Uiso  ? Co
   Co24       1.0     0.791942     0.374162     0.894071    Uiso  ? Co
   Co25       1.0     0.125275     0.624162     0.144070    Uiso  ? Co
   Co25       1.0     0.458608     0.624162     0.144070    Uiso  ? Co
   Co25       1.0     0.791942     0.624162     0.144070    Uiso  ? Co
   Co26       1.0     0.125275     0.624162     0.394070    Uiso  ? Co
   Co26       1.0     0.458608     0.624162     0.394070    Uiso  ? Co
   Co26       1.0     0.791941     0.624162     0.394070    Uiso  ? Co
   Co27       1.0     0.125275     0.624162     0.644071    Uiso  ? Co
   Co27       1.0     0.458608     0.624162     0.644071    Uiso  ? Co
   Co27       1.0     0.791942     0.624162     0.644071    Uiso  ? Co
   Co28       1.0     0.125275     0.624161     0.894071    Uiso  ? Co
   Co28       1.0     0.458608     0.624161     0.894071    Uiso  ? Co
   Co28       1.0     0.791942     0.624161     0.894071    Uiso  ? Co
   Co29       1.0     0.125275     0.874162     0.144070    Uiso  ? Co
   Co29       1.0     0.458608     0.874162     0.144070    Uiso  ? Co
   Co29       1.0     0.791941     0.874162     0.144070    Uiso  ? Co
   Co30       1.0     0.125275     0.874162     0.394070    Uiso  ? Co
   Co30       1.0     0.458608     0.874162     0.394070    Uiso  ? Co
   Co30       1.0     0.791941     0.874162     0.394070    Uiso  ? Co
   Co31       1.0     0.125275     0.874162     0.644071    Uiso  ? Co
   Co31       1.0     0.458608     0.874162     0.644071    Uiso  ? Co
   Co31       1.0     0.791942     0.874162     0.644071    Uiso  ? Co
   Co32       1.0     0.125275     0.874161     0.894070    Uiso  ? Co
   Co32       1.0     0.458608     0.874161     0.894070    Uiso  ? Co
   Co32       1.0     0.791942     0.874161     0.894070    Uiso  ? Co
   Co33       1.0     0.208608     0.124162     0.144070    Uiso  ? Co
   Co33       1.0     0.541941     0.124162     0.144070    Uiso  ? Co
   Co33       1.0     0.875275     0.124162     0.144070    Uiso  ? Co
   Co34       1.0     0.208608     0.124161     0.394070    Uiso  ? Co
   Co34       1.0     0.541941     0.124161     0.394070    Uiso  ? Co
   Co34       1.0     0.875275     0.124161     0.394070    Uiso  ? Co
   Co35       1.0     0.208608     0.124162     0.644070    Uiso  ? Co
   Co35       1.0     0.541941     0.124162     0.644070    Uiso  ? Co
   Co35       1.0     0.875275     0.124162     0.644070    Uiso  ? Co
   Co36       1.0     0.208608     0.124162     0.894070    Uiso  ? Co
   Co36       1.0     0.541942     0.124162     0.894070    Uiso  ? Co
   Co36       1.0     0.875275     0.124162     0.894070    Uiso  ? Co
   Co37       1.0     0.208608     0.374162     0.144070    Uiso  ? Co
   Co37       1.0     0.541942     0.374162     0.144070    Uiso  ? Co
   Co37       1.0     0.875275     0.374162     0.144070    Uiso  ? Co
   Co38       1.0     0.208608     0.374162     0.394070    Uiso  ? Co
   Co38       1.0     0.541941     0.374162     0.394070    Uiso  ? Co
   Co38       1.0     0.875275     0.374162     0.394070    Uiso  ? Co
   Co39       1.0     0.208608     0.374162     0.644070    Uiso  ? Co
   Co39       1.0     0.541942     0.374162     0.644070    Uiso  ? Co
   Co39       1.0     0.875275     0.374162     0.644070    Uiso  ? Co
   Co40       1.0     0.208608     0.374162     0.894071    Uiso  ? Co
   Co40       1.0     0.541942     0.374162     0.894071    Uiso  ? Co
   Co40       1.0     0.875275     0.374162     0.894071    Uiso  ? Co
   Co41       1.0     0.208608     0.624162     0.144070    Uiso  ? Co
   Co41       1.0     0.541942     0.624162     0.144070    Uiso  ? Co
   Co41       1.0     0.875275     0.624162     0.144070    Uiso  ? Co
   Co42       1.0     0.208608     0.624162     0.394070    Uiso  ? Co
   Co42       1.0     0.541941     0.624162     0.394070    Uiso  ? Co
   Co42       1.0     0.875275     0.624162     0.394070    Uiso  ? Co
   Co43       1.0     0.208608     0.624161     0.644070    Uiso  ? Co
   Co43       1.0     0.541942     0.624161     0.644070    Uiso  ? Co
   Co43       1.0     0.875275     0.624161     0.644070    Uiso  ? Co
   Co44       1.0     0.208609     0.624162     0.894071    Uiso  ? Co
   Co44       1.0     0.541942     0.624162     0.894071    Uiso  ? Co
   Co44       1.0     0.875275     0.624162     0.894071    Uiso  ? Co
   Co45       1.0     0.208608     0.874162     0.144070    Uiso  ? Co
   Co45       1.0     0.541942     0.874162     0.144070    Uiso  ? Co
   Co45       1.0     0.875275     0.874162     0.144070    Uiso  ? Co
   Co46       1.0     0.208608     0.874162     0.394070    Uiso  ? Co
   Co46       1.0     0.541941     0.874162     0.394070    Uiso  ? Co
   Co46       1.0     0.875275     0.874162     0.394070    Uiso  ? Co
   Co47       1.0     0.208608     0.874162     0.644070    Uiso  ? Co
   Co47       1.0     0.541942     0.874162     0.644070    Uiso  ? Co
   Co47       1.0     0.875275     0.874162     0.644070    Uiso  ? Co
   Co48       1.0     0.208608     0.874161     0.894071    Uiso  ? Co
   Co48       1.0     0.541942     0.874161     0.894071    Uiso  ? Co
   Co48       1.0     0.875275     0.874161     0.894071    Uiso  ? Co
   Co49       1.0     0.291942     0.124162     0.144070    Uiso  ? Co
   Co49       1.0     0.625275     0.124162     0.144070    Uiso  ? Co
   Co49       1.0     0.958608     0.124162     0.144070    Uiso  ? Co
   Co50       1.0     0.291942     0.124162     0.394070    Uiso  ? Co
   Co50       1.0     0.625275     0.124162     0.394070    Uiso  ? Co
   Co50       1.0     0.958608     0.124162     0.394070    Uiso  ? Co
   Co51       1.0     0.291941     0.124162     0.644070    Uiso  ? Co
   Co51       1.0     0.625275     0.124162     0.644070    Uiso  ? Co
   Co51       1.0     0.958608     0.124162     0.644070    Uiso  ? Co
   Co52       1.0     0.291942     0.124161     0.894070    Uiso  ? Co
   Co52       1.0     0.625275     0.124161     0.894070    Uiso  ? Co
   Co52       1.0     0.958608     0.124161     0.894070    Uiso  ? Co
   Co53       1.0     0.291942     0.374162     0.144070    Uiso  ? Co
   Co53       1.0     0.625275     0.374162     0.144070    Uiso  ? Co
   Co53       1.0     0.958608     0.374162     0.144070    Uiso  ? Co
   Co54       1.0     0.291941     0.374162     0.394070    Uiso  ? Co
   Co54       1.0     0.625275     0.374162     0.394070    Uiso  ? Co
   Co54       1.0     0.958608     0.374162     0.394070    Uiso  ? Co
   Co55       1.0     0.291941     0.374162     0.644070    Uiso  ? Co
   Co55       1.0     0.625275     0.374162     0.644070    Uiso  ? Co
   Co55       1.0     0.958608     0.374162     0.644070    Uiso  ? Co
   Co56       1.0     0.291942     0.374161     0.894070    Uiso  ? Co
   Co56       1.0     0.625275     0.374161     0.894070    Uiso  ? Co
   Co56       1.0     0.958608     0.374161     0.894070    Uiso  ? Co
   Co57       1.0     0.291942     0.624162     0.144070    Uiso  ? Co
   Co57       1.0     0.625275     0.624162     0.144070    Uiso  ? Co
   Co57       1.0     0.958608     0.624162     0.144070    Uiso  ? Co
   Co58       1.0     0.291941     0.624162     0.394070    Uiso  ? Co
   Co58       1.0     0.625275     0.624162     0.394070    Uiso  ? Co
   Co58       1.0     0.958608     0.624162     0.394070    Uiso  ? Co
   Co59       1.0     0.291942     0.624162     0.644070    Uiso  ? Co
   Co59       1.0     0.625275     0.624162     0.644070    Uiso  ? Co
   Co59       1.0     0.958608     0.624162     0.644070    Uiso  ? Co
   Co60       1.0     0.291942     0.624162     0.894071    Uiso  ? Co
   Co60       1.0     0.625275     0.624162     0.894071    Uiso  ? Co
   Co60       1.0     0.958608     0.624162     0.894071    Uiso  ? Co
   Co61       1.0     0.291942     0.874162     0.144070    Uiso  ? Co
   Co61       1.0     0.625275     0.874162     0.144070    Uiso  ? Co
   Co61       1.0     0.958608     0.874162     0.144070    Uiso  ? Co
   Co62       1.0     0.291941     0.874162     0.394070    Uiso  ? Co
   Co62       1.0     0.625275     0.874162     0.394070    Uiso  ? Co
   Co62       1.0     0.958608     0.874162     0.394070    Uiso  ? Co
   Co63       1.0     0.291941     0.874162     0.644070    Uiso  ? Co
   Co63       1.0     0.625275     0.874162     0.644070    Uiso  ? Co
   Co63       1.0     0.958608     0.874162     0.644070    Uiso  ? Co
   Co64       1.0     0.291942     0.874162     0.894071    Uiso  ? Co
   Co64       1.0     0.625275     0.874162     0.894071    Uiso  ? Co
   Co64       1.0     0.958608     0.874162     0.894071    Uiso  ? Co
   Bi1        1.0     0.330476     0.008484     0.999737    Uiso  ? Bi
   Bi1        1.0     0.663809     0.008484     0.999737    Uiso  ? Bi
   Bi1        1.0     0.997142     0.008484     0.999737    Uiso  ? Bi
   Bi2        1.0     0.330476     0.008484     0.249737    Uiso  ? Bi
   Bi2        1.0     0.663809     0.008484     0.249737    Uiso  ? Bi
   Bi2        1.0     0.997142     0.008484     0.249737    Uiso  ? Bi
   La3        1.0     0.330475     0.008484     0.499737    Uiso  ? La
   La3        1.0     0.663809     0.008484     0.499737    Uiso  ? La
   La3        1.0     0.997142     0.008484     0.499737    Uiso  ? La
   Bi4        1.0     0.330475     0.008484     0.749738    Uiso  ? Bi
   Bi4        1.0     0.663809     0.008484     0.749738    Uiso  ? Bi
   Bi4        1.0     0.997142     0.008484     0.749738    Uiso  ? Bi
   Bi5        1.0     0.330476     0.258483     0.999737    Uiso  ? Bi
   Bi5        1.0     0.663809     0.258483     0.999737    Uiso  ? Bi
   Bi5        1.0     0.997142     0.258483     0.999737    Uiso  ? Bi
   Bi6        1.0     0.330476     0.258484     0.249737    Uiso  ? Bi
   Bi6        1.0     0.663809     0.258484     0.249737    Uiso  ? Bi
   Bi6        1.0     0.997142     0.258484     0.249737    Uiso  ? Bi
   Bi7        1.0     0.330475     0.258485     0.499737    Uiso  ? Bi
   Bi7        1.0     0.663809     0.258485     0.499737    Uiso  ? Bi
   Bi7        1.0     0.997142     0.258485     0.499737    Uiso  ? Bi
   La8        1.0     0.330475     0.258484     0.749737    Uiso  ? La
   La8        1.0     0.663809     0.258484     0.749737    Uiso  ? La
   La8        1.0     0.997142     0.258484     0.749737    Uiso  ? La
   Bi9        1.0     0.330476     0.508484     0.999737    Uiso  ? Bi
   Bi9        1.0     0.663809     0.508484     0.999737    Uiso  ? Bi
   Bi9        1.0     0.997142     0.508484     0.999737    Uiso  ? Bi
   La10       1.0     0.330475     0.508484     0.249737    Uiso  ? La
   La10       1.0     0.663809     0.508484     0.249737    Uiso  ? La
   La10       1.0     0.997142     0.508484     0.249737    Uiso  ? La
   Bi11       1.0     0.330475     0.508484     0.499737    Uiso  ? Bi
   Bi11       1.0     0.663809     0.508484     0.499737    Uiso  ? Bi
   Bi11       1.0     0.997142     0.508484     0.499737    Uiso  ? Bi
   Bi12       1.0     0.330476     0.508484     0.749737    Uiso  ? Bi
   Bi12       1.0     0.663809     0.508484     0.749737    Uiso  ? Bi
   Bi12       1.0     0.997142     0.508484     0.749737    Uiso  ? Bi
   Bi13       1.0     0.330476     0.758484     0.999738    Uiso  ? Bi
   Bi13       1.0     0.663809     0.758484     0.999738    Uiso  ? Bi
   Bi13       1.0     0.997142     0.758484     0.999738    Uiso  ? Bi
   Bi14       1.0     0.330475     0.758484     0.249737    Uiso  ? Bi
   Bi14       1.0     0.663809     0.758484     0.249737    Uiso  ? Bi
   Bi14       1.0     0.997142     0.758484     0.249737    Uiso  ? Bi
   Bi15       1.0     0.330475     0.758484     0.499737    Uiso  ? Bi
   Bi15       1.0     0.663809     0.758484     0.499737    Uiso  ? Bi
   Bi15       1.0     0.997142     0.758484     0.499737    Uiso  ? Bi
   Bi16       1.0     0.330475     0.758484     0.749737    Uiso  ? Bi
   Bi16       1.0     0.663809     0.758484     0.749737    Uiso  ? Bi
   Bi16       1.0     0.997142     0.758484     0.749737    Uiso  ? Bi
   Bi17       1.0     0.080476     0.008484     0.999737    Uiso  ? Bi
   Bi17       1.0     0.413809     0.008484     0.999737    Uiso  ? Bi
   Bi17       1.0     0.747142     0.008484     0.999737    Uiso  ? Bi
   Bi18       1.0     0.080475     0.008484     0.249737    Uiso  ? Bi
   Bi18       1.0     0.413809     0.008484     0.249737    Uiso  ? Bi
   Bi18       1.0     0.747142     0.008484     0.249737    Uiso  ? Bi
   Bi19       1.0     0.080475     0.008484     0.499737    Uiso  ? Bi
   Bi19       1.0     0.413809     0.008484     0.499737    Uiso  ? Bi
   Bi19       1.0     0.747142     0.008484     0.499737    Uiso  ? Bi
   La20       1.0     0.080476     0.008484     0.749737    Uiso  ? La
   La20       1.0     0.413809     0.008484     0.749737    Uiso  ? La
   La20       1.0     0.747142     0.008484     0.749737    Uiso  ? La
   Bi21       1.0     0.080476     0.258484     0.999737    Uiso  ? Bi
   Bi21       1.0     0.413809     0.258484     0.999737    Uiso  ? Bi
   Bi21       1.0     0.747142     0.258484     0.999737    Uiso  ? Bi
   Bi22       1.0     0.080476     0.258484     0.249737    Uiso  ? Bi
   Bi22       1.0     0.413809     0.258484     0.249737    Uiso  ? Bi
   Bi22       1.0     0.747142     0.258484     0.249737    Uiso  ? Bi
   Bi23       1.0     0.080476     0.258484     0.499737    Uiso  ? Bi
   Bi23       1.0     0.413809     0.258484     0.499737    Uiso  ? Bi
   Bi23       1.0     0.747142     0.258484     0.499737    Uiso  ? Bi
   Bi24       1.0     0.080476     0.258484     0.749737    Uiso  ? Bi
   Bi24       1.0     0.413809     0.258484     0.749737    Uiso  ? Bi
   Bi24       1.0     0.747142     0.258484     0.749737    Uiso  ? Bi
   La25       1.0     0.080476     0.508484     0.999737    Uiso  ? La
   La25       1.0     0.413809     0.508484     0.999737    Uiso  ? La
   La25       1.0     0.747142     0.508484     0.999737    Uiso  ? La
   La26       1.0     0.080475     0.508485     0.249737    Uiso  ? La
   La26       1.0     0.413809     0.508485     0.249737    Uiso  ? La
   La26       1.0     0.747142     0.508485     0.249737    Uiso  ? La
   Bi27       1.0     0.080475     0.508484     0.499737    Uiso  ? Bi
   Bi27       1.0     0.413809     0.508484     0.499737    Uiso  ? Bi
   Bi27       1.0     0.747142     0.508484     0.499737    Uiso  ? Bi
   La28       1.0     0.080475     0.508484     0.749738    Uiso  ? La
   La28       1.0     0.413809     0.508484     0.749738    Uiso  ? La
   La28       1.0     0.747142     0.508484     0.749738    Uiso  ? La
   Bi29       1.0     0.080476     0.758484     0.999737    Uiso  ? Bi
   Bi29       1.0     0.413809     0.758484     0.999737    Uiso  ? Bi
   Bi29       1.0     0.747142     0.758484     0.999737    Uiso  ? Bi
   Bi30       1.0     0.080475     0.758484     0.249737    Uiso  ? Bi
   Bi30       1.0     0.413809     0.758484     0.249737    Uiso  ? Bi
   Bi30       1.0     0.747142     0.758484     0.249737    Uiso  ? Bi
   Bi31       1.0     0.080475     0.758484     0.499737    Uiso  ? Bi
   Bi31       1.0     0.413809     0.758484     0.499737    Uiso  ? Bi
   Bi31       1.0     0.747142     0.758484     0.499737    Uiso  ? Bi
   Bi32       1.0     0.080475     0.758484     0.749737    Uiso  ? Bi
   Bi32       1.0     0.413809     0.758484     0.749737    Uiso  ? Bi
   Bi32       1.0     0.747142     0.758484     0.749737    Uiso  ? Bi
   Bi33       1.0     0.163809     0.008484     0.999737    Uiso  ? Bi
   Bi33       1.0     0.497142     0.008484     0.999737    Uiso  ? Bi
   Bi33       1.0     0.830476     0.008484     0.999737    Uiso  ? Bi
   Bi34       1.0     0.163809     0.008484     0.249737    Uiso  ? Bi
   Bi34       1.0     0.497142     0.008484     0.249737    Uiso  ? Bi
   Bi34       1.0     0.830475     0.008484     0.249737    Uiso  ? Bi
   Bi35       1.0     0.163809     0.008484     0.499737    Uiso  ? Bi
   Bi35       1.0     0.497142     0.008484     0.499737    Uiso  ? Bi
   Bi35       1.0     0.830475     0.008484     0.499737    Uiso  ? Bi
   La36       1.0     0.163809     0.008485     0.749737    Uiso  ? La
   La36       1.0     0.497142     0.008485     0.749737    Uiso  ? La
   La36       1.0     0.830476     0.008485     0.749737    Uiso  ? La
   Bi37       1.0     0.163809     0.258484     0.999737    Uiso  ? Bi
   Bi37       1.0     0.497142     0.258484     0.999737    Uiso  ? Bi
   Bi37       1.0     0.830476     0.258484     0.999737    Uiso  ? Bi
   Bi38       1.0     0.163809     0.258484     0.249737    Uiso  ? Bi
   Bi38       1.0     0.497142     0.258484     0.249737    Uiso  ? Bi
   Bi38       1.0     0.830475     0.258484     0.249737    Uiso  ? Bi
   Bi39       1.0     0.163809     0.258484     0.499737    Uiso  ? Bi
   Bi39       1.0     0.497142     0.258484     0.499737    Uiso  ? Bi
   Bi39       1.0     0.830476     0.258484     0.499737    Uiso  ? Bi
   Bi40       1.0     0.163809     0.258485     0.749737    Uiso  ? Bi
   Bi40       1.0     0.497142     0.258485     0.749737    Uiso  ? Bi
   Bi40       1.0     0.830475     0.258485     0.749737    Uiso  ? Bi
   Bi41       1.0     0.163809     0.508484     0.999737    Uiso  ? Bi
   Bi41       1.0     0.497142     0.508484     0.999737    Uiso  ? Bi
   Bi41       1.0     0.830476     0.508484     0.999737    Uiso  ? Bi
   Bi42       1.0     0.163809     0.508485     0.249737    Uiso  ? Bi
   Bi42       1.0     0.497142     0.508485     0.249737    Uiso  ? Bi
   Bi42       1.0     0.830475     0.508485     0.249737    Uiso  ? Bi
   La43       1.0     0.163809     0.508484     0.499737    Uiso  ? La
   La43       1.0     0.497142     0.508484     0.499737    Uiso  ? La
   La43       1.0     0.830475     0.508484     0.499737    Uiso  ? La
   Bi44       1.0     0.163809     0.508484     0.749737    Uiso  ? Bi
   Bi44       1.0     0.497142     0.508484     0.749737    Uiso  ? Bi
   Bi44       1.0     0.830476     0.508484     0.749737    Uiso  ? Bi
   La45       1.0     0.163809     0.758484     0.999737    Uiso  ? La
   La45       1.0     0.497142     0.758484     0.999737    Uiso  ? La
   La45       1.0     0.830476     0.758484     0.999737    Uiso  ? La
   Bi46       1.0     0.163809     0.758484     0.249737    Uiso  ? Bi
   Bi46       1.0     0.497142     0.758484     0.249737    Uiso  ? Bi
   Bi46       1.0     0.830475     0.758484     0.249737    Uiso  ? Bi
   La47       1.0     0.163809     0.758484     0.499737    Uiso  ? La
   La47       1.0     0.497142     0.758484     0.499737    Uiso  ? La
   La47       1.0     0.830475     0.758484     0.499737    Uiso  ? La
   La48       1.0     0.163809     0.758484     0.749737    Uiso  ? La
   La48       1.0     0.497142     0.758484     0.749737    Uiso  ? La
   La48       1.0     0.830476     0.758484     0.749737    Uiso  ? La
   Bi49       1.0     0.247142     0.008484     0.999737    Uiso  ? Bi
   Bi49       1.0     0.580476     0.008484     0.999737    Uiso  ? Bi
   Bi49       1.0     0.913809     0.008484     0.999737    Uiso  ? Bi
   Bi50       1.0     0.247142     0.008484     0.249737    Uiso  ? Bi
   Bi50       1.0     0.580475     0.008484     0.249737    Uiso  ? Bi
   Bi50       1.0     0.913809     0.008484     0.249737    Uiso  ? Bi
   Bi51       1.0     0.247142     0.008484     0.499737    Uiso  ? Bi
   Bi51       1.0     0.580475     0.008484     0.499737    Uiso  ? Bi
   Bi51       1.0     0.913809     0.008484     0.499737    Uiso  ? Bi
   Bi52       1.0     0.247142     0.008485     0.749737    Uiso  ? Bi
   Bi52       1.0     0.580475     0.008485     0.749737    Uiso  ? Bi
   Bi52       1.0     0.913809     0.008485     0.749737    Uiso  ? Bi
   Bi53       1.0     0.247142     0.258484     0.999738    Uiso  ? Bi
   Bi53       1.0     0.580476     0.258484     0.999738    Uiso  ? Bi
   Bi53       1.0     0.913809     0.258484     0.999738    Uiso  ? Bi
   Bi54       1.0     0.247142     0.258484     0.249737    Uiso  ? Bi
   Bi54       1.0     0.580475     0.258484     0.249737    Uiso  ? Bi
   Bi54       1.0     0.913809     0.258484     0.249737    Uiso  ? Bi
   La55       1.0     0.247142     0.258484     0.499737    Uiso  ? La
   La55       1.0     0.580475     0.258484     0.499737    Uiso  ? La
   La55       1.0     0.913809     0.258484     0.499737    Uiso  ? La
   Bi56       1.0     0.247142     0.258484     0.749738    Uiso  ? Bi
   Bi56       1.0     0.580475     0.258484     0.749738    Uiso  ? Bi
   Bi56       1.0     0.913809     0.258484     0.749738    Uiso  ? Bi
   Bi57       1.0     0.247143     0.508484     0.999738    Uiso  ? Bi
   Bi57       1.0     0.580476     0.508484     0.999738    Uiso  ? Bi
   Bi57       1.0     0.913809     0.508484     0.999738    Uiso  ? Bi
   La58       1.0     0.247142     0.508484     0.249737    Uiso  ? La
   La58       1.0     0.580476     0.508484     0.249737    Uiso  ? La
   La58       1.0     0.913809     0.508484     0.249737    Uiso  ? La
   La59       1.0     0.247142     0.508484     0.499737    Uiso  ? La
   La59       1.0     0.580475     0.508484     0.499737    Uiso  ? La
   La59       1.0     0.913809     0.508484     0.499737    Uiso  ? La
   Bi60       1.0     0.247142     0.508484     0.749738    Uiso  ? Bi
   Bi60       1.0     0.580476     0.508484     0.749738    Uiso  ? Bi
   Bi60       1.0     0.913809     0.508484     0.749738    Uiso  ? Bi
   Bi61       1.0     0.247142     0.758484     0.999738    Uiso  ? Bi
   Bi61       1.0     0.580476     0.758484     0.999738    Uiso  ? Bi
   Bi61       1.0     0.913809     0.758484     0.999738    Uiso  ? Bi
   Bi62       1.0     0.247142     0.758485     0.249737    Uiso  ? Bi
   Bi62       1.0     0.580476     0.758485     0.249737    Uiso  ? Bi
   Bi62       1.0     0.913809     0.758485     0.249737    Uiso  ? Bi
   Bi63       1.0     0.247142     0.758484     0.499737    Uiso  ? Bi
   Bi63       1.0     0.580475     0.758484     0.499737    Uiso  ? Bi
   Bi63       1.0     0.913809     0.758484     0.499737    Uiso  ? Bi
   La64       1.0     0.247142     0.758484     0.749738    Uiso  ? La
   La64       1.0     0.580476     0.758484     0.749738    Uiso  ? La
   La64       1.0     0.913809     0.758484     0.749738    Uiso  ? La
   O1         1.0     0.041660     0.000014     0.180465    Uiso  ? O
   O1         1.0     0.374994     0.000014     0.180465    Uiso  ? O
   O1         1.0     0.708327     0.000014     0.180465    Uiso  ? O
   O2         1.0     0.041660     0.000014     0.430466    Uiso  ? O
   O2         1.0     0.374993     0.000014     0.430466    Uiso  ? O
   O2         1.0     0.708327     0.000014     0.430466    Uiso  ? O
   O3         1.0     0.041660     0.000014     0.680466    Uiso  ? O
   O3         1.0     0.374994     0.000014     0.680466    Uiso  ? O
   O3         1.0     0.708327     0.000014     0.680466    Uiso  ? O
   O4         1.0     0.041661     0.000013     0.930466    Uiso  ? O
   O4         1.0     0.374994     0.000013     0.930466    Uiso  ? O
   O4         1.0     0.708327     0.000013     0.930466    Uiso  ? O
   O5         1.0     0.041661     0.250014     0.180465    Uiso  ? O
   O5         1.0     0.374994     0.250014     0.180465    Uiso  ? O
   O5         1.0     0.708327     0.250014     0.180465    Uiso  ? O
   O6         1.0     0.041660     0.250014     0.430466    Uiso  ? O
   O6         1.0     0.374994     0.250014     0.430466    Uiso  ? O
   O6         1.0     0.708327     0.250014     0.430466    Uiso  ? O
   O7         1.0     0.041660     0.250014     0.680465    Uiso  ? O
   O7         1.0     0.374994     0.250014     0.680465    Uiso  ? O
   O7         1.0     0.708327     0.250014     0.680465    Uiso  ? O
   O8         1.0     0.041661     0.250013     0.930465    Uiso  ? O
   O8         1.0     0.374994     0.250013     0.930465    Uiso  ? O
   O8         1.0     0.708327     0.250013     0.930465    Uiso  ? O
   O9         1.0     0.041660     0.500014     0.180465    Uiso  ? O
   O9         1.0     0.374994     0.500014     0.180465    Uiso  ? O
   O9         1.0     0.708327     0.500014     0.180465    Uiso  ? O
   O10        1.0     0.041660     0.500013     0.430465    Uiso  ? O
   O10        1.0     0.374994     0.500013     0.430465    Uiso  ? O
   O10        1.0     0.708327     0.500013     0.430465    Uiso  ? O
   O11        1.0     0.041660     0.500014     0.680466    Uiso  ? O
   O11        1.0     0.374994     0.500014     0.680466    Uiso  ? O
   O11        1.0     0.708327     0.500014     0.680466    Uiso  ? O
   O12        1.0     0.041660     0.500013     0.930466    Uiso  ? O
   O12        1.0     0.374994     0.500013     0.930466    Uiso  ? O
   O12        1.0     0.708327     0.500013     0.930466    Uiso  ? O
   O13        1.0     0.041660     0.750014     0.180465    Uiso  ? O
   O13        1.0     0.374994     0.750014     0.180465    Uiso  ? O
   O13        1.0     0.708327     0.750014     0.180465    Uiso  ? O
   O14        1.0     0.041660     0.750014     0.430465    Uiso  ? O
   O14        1.0     0.374994     0.750014     0.430465    Uiso  ? O
   O14        1.0     0.708327     0.750014     0.430465    Uiso  ? O
   O15        1.0     0.041660     0.750014     0.680466    Uiso  ? O
   O15        1.0     0.374994     0.750014     0.680466    Uiso  ? O
   O15        1.0     0.708327     0.750014     0.680466    Uiso  ? O
   O16        1.0     0.041660     0.750013     0.930466    Uiso  ? O
   O16        1.0     0.374994     0.750013     0.930466    Uiso  ? O
   O16        1.0     0.708327     0.750013     0.930466    Uiso  ? O
   O17        1.0     0.124994     0.000013     0.180465    Uiso  ? O
   O17        1.0     0.458327     0.000013     0.180465    Uiso  ? O
   O17        1.0     0.791660     0.000013     0.180465    Uiso  ? O
   O18        1.0     0.124994     0.000013     0.430465    Uiso  ? O
   O18        1.0     0.458327     0.000013     0.430465    Uiso  ? O
   O18        1.0     0.791660     0.000013     0.430465    Uiso  ? O
   O19        1.0     0.124994     0.000014     0.680465    Uiso  ? O
   O19        1.0     0.458327     0.000014     0.680465    Uiso  ? O
   O19        1.0     0.791661     0.000014     0.680465    Uiso  ? O
   O20        1.0     0.124994     0.000013     0.930465    Uiso  ? O
   O20        1.0     0.458327     0.000013     0.930465    Uiso  ? O
   O20        1.0     0.791660     0.000013     0.930465    Uiso  ? O
   O21        1.0     0.124994     0.250014     0.180465    Uiso  ? O
   O21        1.0     0.458327     0.250014     0.180465    Uiso  ? O
   O21        1.0     0.791660     0.250014     0.180465    Uiso  ? O
   O22        1.0     0.124994     0.250013     0.430466    Uiso  ? O
   O22        1.0     0.458327     0.250013     0.430466    Uiso  ? O
   O22        1.0     0.791660     0.250013     0.430466    Uiso  ? O
   O23        1.0     0.124994     0.250014     0.680466    Uiso  ? O
   O23        1.0     0.458327     0.250014     0.680466    Uiso  ? O
   O23        1.0     0.791660     0.250014     0.680466    Uiso  ? O
   O24        1.0     0.124994     0.250014     0.930466    Uiso  ? O
   O24        1.0     0.458327     0.250014     0.930466    Uiso  ? O
   O24        1.0     0.791660     0.250014     0.930466    Uiso  ? O
   O25        1.0     0.124994     0.500014     0.180465    Uiso  ? O
   O25        1.0     0.458327     0.500014     0.180465    Uiso  ? O
   O25        1.0     0.791660     0.500014     0.180465    Uiso  ? O
   O26        1.0     0.124994     0.500014     0.430465    Uiso  ? O
   O26        1.0     0.458327     0.500014     0.430465    Uiso  ? O
   O26        1.0     0.791660     0.500014     0.430465    Uiso  ? O
   O27        1.0     0.124994     0.500014     0.680466    Uiso  ? O
   O27        1.0     0.458327     0.500014     0.680466    Uiso  ? O
   O27        1.0     0.791660     0.500014     0.680466    Uiso  ? O
   O28        1.0     0.124994     0.500013     0.930466    Uiso  ? O
   O28        1.0     0.458327     0.500013     0.930466    Uiso  ? O
   O28        1.0     0.791661     0.500013     0.930466    Uiso  ? O
   O29        1.0     0.124994     0.750014     0.180466    Uiso  ? O
   O29        1.0     0.458327     0.750014     0.180466    Uiso  ? O
   O29        1.0     0.791660     0.750014     0.180466    Uiso  ? O
   O30        1.0     0.124993     0.750014     0.430466    Uiso  ? O
   O30        1.0     0.458327     0.750014     0.430466    Uiso  ? O
   O30        1.0     0.791660     0.750014     0.430466    Uiso  ? O
   O31        1.0     0.124994     0.750014     0.680466    Uiso  ? O
   O31        1.0     0.458327     0.750014     0.680466    Uiso  ? O
   O31        1.0     0.791660     0.750014     0.680466    Uiso  ? O
   O32        1.0     0.124994     0.750013     0.930466    Uiso  ? O
   O32        1.0     0.458327     0.750013     0.930466    Uiso  ? O
   O32        1.0     0.791660     0.750013     0.930466    Uiso  ? O
   O33        1.0     0.208327     0.000014     0.180466    Uiso  ? O
   O33        1.0     0.541660     0.000014     0.180466    Uiso  ? O
   O33        1.0     0.874993     0.000014     0.180466    Uiso  ? O
   O34        1.0     0.208327     0.000013     0.430466    Uiso  ? O
   O34        1.0     0.541660     0.000013     0.430466    Uiso  ? O
   O34        1.0     0.874994     0.000013     0.430466    Uiso  ? O
   O35        1.0     0.208327     0.000014     0.680465    Uiso  ? O
   O35        1.0     0.541660     0.000014     0.680465    Uiso  ? O
   O35        1.0     0.874994     0.000014     0.680465    Uiso  ? O
   O36        1.0     0.208327     0.000013     0.930466    Uiso  ? O
   O36        1.0     0.541660     0.000013     0.930466    Uiso  ? O
   O36        1.0     0.874994     0.000013     0.930466    Uiso  ? O
   O37        1.0     0.208327     0.250014     0.180466    Uiso  ? O
   O37        1.0     0.541660     0.250014     0.180466    Uiso  ? O
   O37        1.0     0.874994     0.250014     0.180466    Uiso  ? O
   O38        1.0     0.208327     0.250013     0.430466    Uiso  ? O
   O38        1.0     0.541660     0.250013     0.430466    Uiso  ? O
   O38        1.0     0.874994     0.250013     0.430466    Uiso  ? O
   O39        1.0     0.208327     0.250014     0.680466    Uiso  ? O
   O39        1.0     0.541660     0.250014     0.680466    Uiso  ? O
   O39        1.0     0.874994     0.250014     0.680466    Uiso  ? O
   O40        1.0     0.208327     0.250013     0.930466    Uiso  ? O
   O40        1.0     0.541660     0.250013     0.930466    Uiso  ? O
   O40        1.0     0.874994     0.250013     0.930466    Uiso  ? O
   O41        1.0     0.208327     0.500014     0.180466    Uiso  ? O
   O41        1.0     0.541660     0.500014     0.180466    Uiso  ? O
   O41        1.0     0.874994     0.500014     0.180466    Uiso  ? O
   O42        1.0     0.208327     0.500014     0.430466    Uiso  ? O
   O42        1.0     0.541660     0.500014     0.430466    Uiso  ? O
   O42        1.0     0.874994     0.500014     0.430466    Uiso  ? O
   O43        1.0     0.208327     0.500014     0.680466    Uiso  ? O
   O43        1.0     0.541660     0.500014     0.680466    Uiso  ? O
   O43        1.0     0.874994     0.500014     0.680466    Uiso  ? O
   O44        1.0     0.208327     0.500013     0.930466    Uiso  ? O
   O44        1.0     0.541661     0.500013     0.930466    Uiso  ? O
   O44        1.0     0.874994     0.500013     0.930466    Uiso  ? O
   O45        1.0     0.208327     0.750014     0.180465    Uiso  ? O
   O45        1.0     0.541661     0.750014     0.180465    Uiso  ? O
   O45        1.0     0.874994     0.750014     0.180465    Uiso  ? O
   O46        1.0     0.208327     0.750013     0.430466    Uiso  ? O
   O46        1.0     0.541660     0.750013     0.430466    Uiso  ? O
   O46        1.0     0.874994     0.750013     0.430466    Uiso  ? O
   O47        1.0     0.208327     0.750013     0.680466    Uiso  ? O
   O47        1.0     0.541661     0.750013     0.680466    Uiso  ? O
   O47        1.0     0.874994     0.750013     0.680466    Uiso  ? O
   O48        1.0     0.208327     0.750014     0.930466    Uiso  ? O
   O48        1.0     0.541661     0.750014     0.930466    Uiso  ? O
   O48        1.0     0.874994     0.750014     0.930466    Uiso  ? O
   O49        1.0     0.291661     0.000014     0.180466    Uiso  ? O
   O49        1.0     0.624994     0.000014     0.180466    Uiso  ? O
   O49        1.0     0.958327     0.000014     0.180466    Uiso  ? O
   O50        1.0     0.291660     0.000013     0.430466    Uiso  ? O
   O50        1.0     0.624994     0.000013     0.430466    Uiso  ? O
   O50        1.0     0.958327     0.000013     0.430466    Uiso  ? O
   O51        1.0     0.291660     0.000014     0.680466    Uiso  ? O
   O51        1.0     0.624994     0.000014     0.680466    Uiso  ? O
   O51        1.0     0.958327     0.000014     0.680466    Uiso  ? O
   O52        1.0     0.291660     0.000014     0.930466    Uiso  ? O
   O52        1.0     0.624994     0.000014     0.930466    Uiso  ? O
   O52        1.0     0.958327     0.000014     0.930466    Uiso  ? O
   O53        1.0     0.291660     0.250013     0.180466    Uiso  ? O
   O53        1.0     0.624994     0.250013     0.180466    Uiso  ? O
   O53        1.0     0.958327     0.250013     0.180466    Uiso  ? O
   O54        1.0     0.291660     0.250014     0.430465    Uiso  ? O
   O54        1.0     0.624994     0.250014     0.430465    Uiso  ? O
   O54        1.0     0.958327     0.250014     0.430465    Uiso  ? O
   O55        1.0     0.291660     0.250014     0.680466    Uiso  ? O
   O55        1.0     0.624994     0.250014     0.680466    Uiso  ? O
   O55        1.0     0.958327     0.250014     0.680466    Uiso  ? O
   O56        1.0     0.291660     0.250013     0.930466    Uiso  ? O
   O56        1.0     0.624994     0.250013     0.930466    Uiso  ? O
   O56        1.0     0.958327     0.250013     0.930466    Uiso  ? O
   O57        1.0     0.291660     0.500014     0.180465    Uiso  ? O
   O57        1.0     0.624994     0.500014     0.180465    Uiso  ? O
   O57        1.0     0.958327     0.500014     0.180465    Uiso  ? O
   O58        1.0     0.291660     0.500014     0.430465    Uiso  ? O
   O58        1.0     0.624994     0.500014     0.430465    Uiso  ? O
   O58        1.0     0.958327     0.500014     0.430465    Uiso  ? O
   O59        1.0     0.291660     0.500014     0.680466    Uiso  ? O
   O59        1.0     0.624994     0.500014     0.680466    Uiso  ? O
   O59        1.0     0.958327     0.500014     0.680466    Uiso  ? O
   O60        1.0     0.291661     0.500013     0.930466    Uiso  ? O
   O60        1.0     0.624994     0.500013     0.930466    Uiso  ? O
   O60        1.0     0.958327     0.500013     0.930466    Uiso  ? O
   O61        1.0     0.291660     0.750014     0.180466    Uiso  ? O
   O61        1.0     0.624994     0.750014     0.180466    Uiso  ? O
   O61        1.0     0.958327     0.750014     0.180466    Uiso  ? O
   O62        1.0     0.291660     0.750013     0.430466    Uiso  ? O
   O62        1.0     0.624994     0.750013     0.430466    Uiso  ? O
   O62        1.0     0.958327     0.750013     0.430466    Uiso  ? O
   O63        1.0     0.291660     0.750014     0.680465    Uiso  ? O
   O63        1.0     0.624994     0.750014     0.680465    Uiso  ? O
   O63        1.0     0.958327     0.750014     0.680465    Uiso  ? O
   O64        1.0     0.291661     0.750014     0.930466    Uiso  ? O
   O64        1.0     0.624994     0.750014     0.930466    Uiso  ? O
   O64        1.0     0.958327     0.750014     0.930466    Uiso  ? O
   O65        1.0     0.044258     0.117338     0.052568    Uiso  ? O
   O65        1.0     0.377591     0.117338     0.052568    Uiso  ? O
   O65        1.0     0.710924     0.117338     0.052568    Uiso  ? O
   O66        1.0     0.044257     0.117338     0.302568    Uiso  ? O
   O66        1.0     0.377591     0.117338     0.302568    Uiso  ? O
   O66        1.0     0.710924     0.117338     0.302568    Uiso  ? O
   O67        1.0     0.044257     0.117337     0.552568    Uiso  ? O
   O67        1.0     0.377591     0.117337     0.552568    Uiso  ? O
   O67        1.0     0.710924     0.117337     0.552568    Uiso  ? O
   O68        1.0     0.044258     0.117337     0.802568    Uiso  ? O
   O68        1.0     0.377591     0.117337     0.802568    Uiso  ? O
   O68        1.0     0.710924     0.117337     0.802568    Uiso  ? O
   O69        1.0     0.044257     0.367338     0.052567    Uiso  ? O
   O69        1.0     0.377591     0.367338     0.052567    Uiso  ? O
   O69        1.0     0.710924     0.367338     0.052567    Uiso  ? O
   O70        1.0     0.044258     0.367338     0.302568    Uiso  ? O
   O70        1.0     0.377591     0.367338     0.302568    Uiso  ? O
   O70        1.0     0.710924     0.367338     0.302568    Uiso  ? O
   O71        1.0     0.044257     0.367339     0.552568    Uiso  ? O
   O71        1.0     0.377591     0.367339     0.552568    Uiso  ? O
   O71        1.0     0.710924     0.367339     0.552568    Uiso  ? O
   O72        1.0     0.044257     0.367338     0.802568    Uiso  ? O
   O72        1.0     0.377591     0.367338     0.802568    Uiso  ? O
   O72        1.0     0.710924     0.367338     0.802568    Uiso  ? O
   O73        1.0     0.044257     0.617338     0.052567    Uiso  ? O
   O73        1.0     0.377590     0.617338     0.052567    Uiso  ? O
   O73        1.0     0.710924     0.617338     0.052567    Uiso  ? O
   O74        1.0     0.044257     0.617338     0.302568    Uiso  ? O
   O74        1.0     0.377591     0.617338     0.302568    Uiso  ? O
   O74        1.0     0.710924     0.617338     0.302568    Uiso  ? O
   O75        1.0     0.044257     0.617337     0.552568    Uiso  ? O
   O75        1.0     0.377591     0.617337     0.552568    Uiso  ? O
   O75        1.0     0.710924     0.617337     0.552568    Uiso  ? O
   O76        1.0     0.044257     0.617338     0.802568    Uiso  ? O
   O76        1.0     0.377591     0.617338     0.802568    Uiso  ? O
   O76        1.0     0.710924     0.617338     0.802568    Uiso  ? O
   O77        1.0     0.044258     0.867338     0.052568    Uiso  ? O
   O77        1.0     0.377591     0.867338     0.052568    Uiso  ? O
   O77        1.0     0.710924     0.867338     0.052568    Uiso  ? O
   O78        1.0     0.044257     0.867339     0.302568    Uiso  ? O
   O78        1.0     0.377591     0.867339     0.302568    Uiso  ? O
   O78        1.0     0.710924     0.867339     0.302568    Uiso  ? O
   O79        1.0     0.044257     0.867339     0.552568    Uiso  ? O
   O79        1.0     0.377590     0.867339     0.552568    Uiso  ? O
   O79        1.0     0.710924     0.867339     0.552568    Uiso  ? O
   O80        1.0     0.044257     0.867338     0.802568    Uiso  ? O
   O80        1.0     0.377591     0.867338     0.802568    Uiso  ? O
   O80        1.0     0.710924     0.867338     0.802568    Uiso  ? O
   O81        1.0     0.127591     0.117338     0.052568    Uiso  ? O
   O81        1.0     0.460924     0.117338     0.052568    Uiso  ? O
   O81        1.0     0.794257     0.117338     0.052568    Uiso  ? O
   O82        1.0     0.127591     0.117338     0.302568    Uiso  ? O
   O82        1.0     0.460924     0.117338     0.302568    Uiso  ? O
   O82        1.0     0.794257     0.117338     0.302568    Uiso  ? O
   O83        1.0     0.127591     0.117338     0.552568    Uiso  ? O
   O83        1.0     0.460924     0.117338     0.552568    Uiso  ? O
   O83        1.0     0.794257     0.117338     0.552568    Uiso  ? O
   O84        1.0     0.127591     0.117339     0.802568    Uiso  ? O
   O84        1.0     0.460924     0.117339     0.802568    Uiso  ? O
   O84        1.0     0.794257     0.117339     0.802568    Uiso  ? O
   O85        1.0     0.127591     0.367338     0.052568    Uiso  ? O
   O85        1.0     0.460924     0.367338     0.052568    Uiso  ? O
   O85        1.0     0.794257     0.367338     0.052568    Uiso  ? O
   O86        1.0     0.127591     0.367338     0.302568    Uiso  ? O
   O86        1.0     0.460924     0.367338     0.302568    Uiso  ? O
   O86        1.0     0.794257     0.367338     0.302568    Uiso  ? O
   O87        1.0     0.127591     0.367339     0.552568    Uiso  ? O
   O87        1.0     0.460924     0.367339     0.552568    Uiso  ? O
   O87        1.0     0.794257     0.367339     0.552568    Uiso  ? O
   O88        1.0     0.127591     0.367338     0.802568    Uiso  ? O
   O88        1.0     0.460924     0.367338     0.802568    Uiso  ? O
   O88        1.0     0.794258     0.367338     0.802568    Uiso  ? O
   O89        1.0     0.127591     0.617339     0.052567    Uiso  ? O
   O89        1.0     0.460924     0.617339     0.052567    Uiso  ? O
   O89        1.0     0.794258     0.617339     0.052567    Uiso  ? O
   O90        1.0     0.127591     0.617339     0.302567    Uiso  ? O
   O90        1.0     0.460924     0.617339     0.302567    Uiso  ? O
   O90        1.0     0.794257     0.617339     0.302567    Uiso  ? O
   O91        1.0     0.127591     0.617338     0.552568    Uiso  ? O
   O91        1.0     0.460924     0.617338     0.552568    Uiso  ? O
   O91        1.0     0.794257     0.617338     0.552568    Uiso  ? O
   O92        1.0     0.127591     0.617338     0.802568    Uiso  ? O
   O92        1.0     0.460924     0.617338     0.802568    Uiso  ? O
   O92        1.0     0.794258     0.617338     0.802568    Uiso  ? O
   O93        1.0     0.127591     0.867337     0.052568    Uiso  ? O
   O93        1.0     0.460924     0.867337     0.052568    Uiso  ? O
   O93        1.0     0.794257     0.867337     0.052568    Uiso  ? O
   O94        1.0     0.127591     0.867337     0.302568    Uiso  ? O
   O94        1.0     0.460924     0.867337     0.302568    Uiso  ? O
   O94        1.0     0.794257     0.867337     0.302568    Uiso  ? O
   O95        1.0     0.127591     0.867338     0.552568    Uiso  ? O
   O95        1.0     0.460924     0.867338     0.552568    Uiso  ? O
   O95        1.0     0.794257     0.867338     0.552568    Uiso  ? O
   O96        1.0     0.127591     0.867338     0.802568    Uiso  ? O
   O96        1.0     0.460924     0.867338     0.802568    Uiso  ? O
   O96        1.0     0.794258     0.867338     0.802568    Uiso  ? O
   O97        1.0     0.210924     0.117338     0.052568    Uiso  ? O
   O97        1.0     0.544257     0.117338     0.052568    Uiso  ? O
   O97        1.0     0.877590     0.117338     0.052568    Uiso  ? O
   O98        1.0     0.210924     0.117338     0.302568    Uiso  ? O
   O98        1.0     0.544257     0.117338     0.302568    Uiso  ? O
   O98        1.0     0.877591     0.117338     0.302568    Uiso  ? O
   O99        1.0     0.210924     0.117339     0.552568    Uiso  ? O
   O99        1.0     0.544257     0.117339     0.552568    Uiso  ? O
   O99        1.0     0.877591     0.117339     0.552568    Uiso  ? O
   O100       1.0     0.210924     0.117338     0.802568    Uiso  ? O
   O100       1.0     0.544257     0.117338     0.802568    Uiso  ? O
   O100       1.0     0.877591     0.117338     0.802568    Uiso  ? O
   O101       1.0     0.210924     0.367338     0.052568    Uiso  ? O
   O101       1.0     0.544258     0.367338     0.052568    Uiso  ? O
   O101       1.0     0.877591     0.367338     0.052568    Uiso  ? O
   O102       1.0     0.210924     0.367338     0.302568    Uiso  ? O
   O102       1.0     0.544257     0.367338     0.302568    Uiso  ? O
   O102       1.0     0.877591     0.367338     0.302568    Uiso  ? O
   O103       1.0     0.210924     0.367338     0.552568    Uiso  ? O
   O103       1.0     0.544258     0.367338     0.552568    Uiso  ? O
   O103       1.0     0.877591     0.367338     0.552568    Uiso  ? O
   O104       1.0     0.210924     0.367338     0.802568    Uiso  ? O
   O104       1.0     0.544258     0.367338     0.802568    Uiso  ? O
   O104       1.0     0.877591     0.367338     0.802568    Uiso  ? O
   O105       1.0     0.210924     0.617338     0.052568    Uiso  ? O
   O105       1.0     0.544258     0.617338     0.052568    Uiso  ? O
   O105       1.0     0.877591     0.617338     0.052568    Uiso  ? O
   O106       1.0     0.210924     0.617338     0.302568    Uiso  ? O
   O106       1.0     0.544257     0.617338     0.302568    Uiso  ? O
   O106       1.0     0.877591     0.617338     0.302568    Uiso  ? O
   O107       1.0     0.210924     0.617337     0.552568    Uiso  ? O
   O107       1.0     0.544257     0.617337     0.552568    Uiso  ? O
   O107       1.0     0.877591     0.617337     0.552568    Uiso  ? O
   O108       1.0     0.210924     0.617339     0.802568    Uiso  ? O
   O108       1.0     0.544258     0.617339     0.802568    Uiso  ? O
   O108       1.0     0.877591     0.617339     0.802568    Uiso  ? O
   O109       1.0     0.210924     0.867339     0.052568    Uiso  ? O
   O109       1.0     0.544258     0.867339     0.052568    Uiso  ? O
   O109       1.0     0.877591     0.867339     0.052568    Uiso  ? O
   O110       1.0     0.210924     0.867338     0.302568    Uiso  ? O
   O110       1.0     0.544257     0.867338     0.302568    Uiso  ? O
   O110       1.0     0.877591     0.867338     0.302568    Uiso  ? O
   O111       1.0     0.210924     0.867338     0.552568    Uiso  ? O
   O111       1.0     0.544257     0.867338     0.552568    Uiso  ? O
   O111       1.0     0.877591     0.867338     0.552568    Uiso  ? O
   O112       1.0     0.210924     0.867337     0.802568    Uiso  ? O
   O112       1.0     0.544258     0.867337     0.802568    Uiso  ? O
   O112       1.0     0.877591     0.867337     0.802568    Uiso  ? O
   O113       1.0     0.294258     0.117339     0.052568    Uiso  ? O
   O113       1.0     0.627591     0.117339     0.052568    Uiso  ? O
   O113       1.0     0.960924     0.117339     0.052568    Uiso  ? O
   O114       1.0     0.294258     0.117338     0.302568    Uiso  ? O
   O114       1.0     0.627591     0.117338     0.302568    Uiso  ? O
   O114       1.0     0.960924     0.117338     0.302568    Uiso  ? O
   O115       1.0     0.294257     0.117339     0.552568    Uiso  ? O
   O115       1.0     0.627591     0.117339     0.552568    Uiso  ? O
   O115       1.0     0.960924     0.117339     0.552568    Uiso  ? O
   O116       1.0     0.294257     0.117338     0.802568    Uiso  ? O
   O116       1.0     0.627591     0.117338     0.802568    Uiso  ? O
   O116       1.0     0.960924     0.117338     0.802568    Uiso  ? O
   O117       1.0     0.294257     0.367337     0.052568    Uiso  ? O
   O117       1.0     0.627591     0.367337     0.052568    Uiso  ? O
   O117       1.0     0.960924     0.367337     0.052568    Uiso  ? O
   O118       1.0     0.294257     0.367338     0.302567    Uiso  ? O
   O118       1.0     0.627591     0.367338     0.302567    Uiso  ? O
   O118       1.0     0.960924     0.367338     0.302567    Uiso  ? O
   O119       1.0     0.294257     0.367339     0.552568    Uiso  ? O
   O119       1.0     0.627591     0.367339     0.552568    Uiso  ? O
   O119       1.0     0.960924     0.367339     0.552568    Uiso  ? O
   O120       1.0     0.294257     0.367338     0.802568    Uiso  ? O
   O120       1.0     0.627591     0.367338     0.802568    Uiso  ? O
   O120       1.0     0.960924     0.367338     0.802568    Uiso  ? O
   O121       1.0     0.294257     0.617338     0.052568    Uiso  ? O
   O121       1.0     0.627591     0.617338     0.052568    Uiso  ? O
   O121       1.0     0.960924     0.617338     0.052568    Uiso  ? O
   O122       1.0     0.294257     0.617338     0.302568    Uiso  ? O
   O122       1.0     0.627591     0.617338     0.302568    Uiso  ? O
   O122       1.0     0.960924     0.617338     0.302568    Uiso  ? O
   O123       1.0     0.294258     0.617338     0.552568    Uiso  ? O
   O123       1.0     0.627591     0.617338     0.552568    Uiso  ? O
   O123       1.0     0.960924     0.617338     0.552568    Uiso  ? O
   O124       1.0     0.294258     0.617339     0.802568    Uiso  ? O
   O124       1.0     0.627591     0.617339     0.802568    Uiso  ? O
   O124       1.0     0.960924     0.617339     0.802568    Uiso  ? O
   O125       1.0     0.294258     0.867338     0.052568    Uiso  ? O
   O125       1.0     0.627591     0.867338     0.052568    Uiso  ? O
   O125       1.0     0.960924     0.867338     0.052568    Uiso  ? O
   O126       1.0     0.294257     0.867338     0.302568    Uiso  ? O
   O126       1.0     0.627591     0.867338     0.302568    Uiso  ? O
   O126       1.0     0.960924     0.867338     0.302568    Uiso  ? O
   O127       1.0     0.294257     0.867338     0.552568    Uiso  ? O
   O127       1.0     0.627591     0.867338     0.552568    Uiso  ? O
   O127       1.0     0.960924     0.867338     0.552568    Uiso  ? O
   O128       1.0     0.294257     0.867338     0.802568    Uiso  ? O
   O128       1.0     0.627591     0.867338     0.802568    Uiso  ? O
   O128       1.0     0.960924     0.867338     0.802568    Uiso  ? O
   O129       1.0     0.333332     0.125003     0.180285    Uiso  ? O
   O129       1.0     0.666665     0.125003     0.180285    Uiso  ? O
   O129       1.0     0.999999     0.125003     0.180285    Uiso  ? O
   O130       1.0     0.333332     0.125003     0.430285    Uiso  ? O
   O130       1.0     0.666665     0.125003     0.430285    Uiso  ? O
   O130       1.0     0.999998     0.125003     0.430285    Uiso  ? O
   O131       1.0     0.333332     0.125003     0.680285    Uiso  ? O
   O131       1.0     0.666665     0.125003     0.680285    Uiso  ? O
   O131       1.0     0.999998     0.125003     0.680285    Uiso  ? O
   O132       1.0     0.333332     0.125002     0.930285    Uiso  ? O
   O132       1.0     0.666665     0.125002     0.930285    Uiso  ? O
   O132       1.0     0.999999     0.125002     0.930285    Uiso  ? O
   O133       1.0     0.333332     0.375002     0.180285    Uiso  ? O
   O133       1.0     0.666665     0.375002     0.180285    Uiso  ? O
   O133       1.0     0.999999     0.375002     0.180285    Uiso  ? O
   O134       1.0     0.333332     0.375002     0.430284    Uiso  ? O
   O134       1.0     0.666665     0.375002     0.430284    Uiso  ? O
   O134       1.0     0.999998     0.375002     0.430284    Uiso  ? O
   O135       1.0     0.333332     0.375002     0.680285    Uiso  ? O
   O135       1.0     0.666665     0.375002     0.680285    Uiso  ? O
   O135       1.0     0.999999     0.375002     0.680285    Uiso  ? O
   O136       1.0     0.333332     0.375002     0.930285    Uiso  ? O
   O136       1.0     0.666665     0.375002     0.930285    Uiso  ? O
   O136       1.0     0.999999     0.375002     0.930285    Uiso  ? O
   O137       1.0     0.333332     0.625003     0.180285    Uiso  ? O
   O137       1.0     0.666665     0.625003     0.180285    Uiso  ? O
   O137       1.0     0.999998     0.625003     0.180285    Uiso  ? O
   O138       1.0     0.333332     0.625002     0.430285    Uiso  ? O
   O138       1.0     0.666665     0.625002     0.430285    Uiso  ? O
   O138       1.0     0.999998     0.625002     0.430285    Uiso  ? O
   O139       1.0     0.333332     0.625003     0.680285    Uiso  ? O
   O139       1.0     0.666665     0.625003     0.680285    Uiso  ? O
   O139       1.0     0.999999     0.625003     0.680285    Uiso  ? O
   O140       1.0     0.333332     0.625002     0.930285    Uiso  ? O
   O140       1.0     0.666665     0.625002     0.930285    Uiso  ? O
   O140       1.0     0.999999     0.625002     0.930285    Uiso  ? O
   O141       1.0     0.333332     0.875003     0.180285    Uiso  ? O
   O141       1.0     0.666665     0.875003     0.180285    Uiso  ? O
   O141       1.0     0.999999     0.875003     0.180285    Uiso  ? O
   O142       1.0     0.333332     0.875002     0.430285    Uiso  ? O
   O142       1.0     0.666665     0.875002     0.430285    Uiso  ? O
   O142       1.0     0.999998     0.875002     0.430285    Uiso  ? O
   O143       1.0     0.333332     0.875003     0.680285    Uiso  ? O
   O143       1.0     0.666665     0.875003     0.680285    Uiso  ? O
   O143       1.0     0.999998     0.875003     0.680285    Uiso  ? O
   O144       1.0     0.333332     0.875003     0.930285    Uiso  ? O
   O144       1.0     0.666665     0.875003     0.930285    Uiso  ? O
   O144       1.0     0.999999     0.875003     0.930285    Uiso  ? O
   O145       1.0     0.083332     0.125002     0.180285    Uiso  ? O
   O145       1.0     0.416665     0.125002     0.180285    Uiso  ? O
   O145       1.0     0.749999     0.125002     0.180285    Uiso  ? O
   O146       1.0     0.083332     0.125002     0.430285    Uiso  ? O
   O146       1.0     0.416665     0.125002     0.430285    Uiso  ? O
   O146       1.0     0.749998     0.125002     0.430285    Uiso  ? O
   O147       1.0     0.083332     0.125002     0.680285    Uiso  ? O
   O147       1.0     0.416665     0.125002     0.680285    Uiso  ? O
   O147       1.0     0.749999     0.125002     0.680285    Uiso  ? O
   O148       1.0     0.083332     0.125002     0.930285    Uiso  ? O
   O148       1.0     0.416665     0.125002     0.930285    Uiso  ? O
   O148       1.0     0.749999     0.125002     0.930285    Uiso  ? O
   O149       1.0     0.083332     0.375003     0.180285    Uiso  ? O
   O149       1.0     0.416665     0.375003     0.180285    Uiso  ? O
   O149       1.0     0.749999     0.375003     0.180285    Uiso  ? O
   O150       1.0     0.083332     0.375002     0.430285    Uiso  ? O
   O150       1.0     0.416665     0.375002     0.430285    Uiso  ? O
   O150       1.0     0.749999     0.375002     0.430285    Uiso  ? O
   O151       1.0     0.083332     0.375003     0.680285    Uiso  ? O
   O151       1.0     0.416665     0.375003     0.680285    Uiso  ? O
   O151       1.0     0.749998     0.375003     0.680285    Uiso  ? O
   O152       1.0     0.083332     0.375003     0.930285    Uiso  ? O
   O152       1.0     0.416665     0.375003     0.930285    Uiso  ? O
   O152       1.0     0.749999     0.375003     0.930285    Uiso  ? O
   O153       1.0     0.083332     0.625003     0.180284    Uiso  ? O
   O153       1.0     0.416665     0.625003     0.180284    Uiso  ? O
   O153       1.0     0.749998     0.625003     0.180284    Uiso  ? O
   O154       1.0     0.083332     0.625003     0.430285    Uiso  ? O
   O154       1.0     0.416665     0.625003     0.430285    Uiso  ? O
   O154       1.0     0.749998     0.625003     0.430285    Uiso  ? O
   O155       1.0     0.083332     0.625003     0.680285    Uiso  ? O
   O155       1.0     0.416665     0.625003     0.680285    Uiso  ? O
   O155       1.0     0.749999     0.625003     0.680285    Uiso  ? O
   O156       1.0     0.083332     0.625002     0.930285    Uiso  ? O
   O156       1.0     0.416665     0.625002     0.930285    Uiso  ? O
   O156       1.0     0.749999     0.625002     0.930285    Uiso  ? O
   O157       1.0     0.083332     0.875003     0.180285    Uiso  ? O
   O157       1.0     0.416665     0.875003     0.180285    Uiso  ? O
   O157       1.0     0.749999     0.875003     0.180285    Uiso  ? O
   O158       1.0     0.083332     0.875003     0.430285    Uiso  ? O
   O158       1.0     0.416665     0.875003     0.430285    Uiso  ? O
   O158       1.0     0.749998     0.875003     0.430285    Uiso  ? O
   O159       1.0     0.083332     0.875003     0.680285    Uiso  ? O
   O159       1.0     0.416665     0.875003     0.680285    Uiso  ? O
   O159       1.0     0.749999     0.875003     0.680285    Uiso  ? O
   O160       1.0     0.083332     0.875002     0.930285    Uiso  ? O
   O160       1.0     0.416665     0.875002     0.930285    Uiso  ? O
   O160       1.0     0.749999     0.875002     0.930285    Uiso  ? O
   O161       1.0     0.166665     0.125003     0.180285    Uiso  ? O
   O161       1.0     0.499998     0.125003     0.180285    Uiso  ? O
   O161       1.0     0.833332     0.125003     0.180285    Uiso  ? O
   O162       1.0     0.166665     0.125002     0.430285    Uiso  ? O
   O162       1.0     0.499998     0.125002     0.430285    Uiso  ? O
   O162       1.0     0.833332     0.125002     0.430285    Uiso  ? O
   O163       1.0     0.166665     0.125003     0.680285    Uiso  ? O
   O163       1.0     0.499998     0.125003     0.680285    Uiso  ? O
   O163       1.0     0.833332     0.125003     0.680285    Uiso  ? O
   O164       1.0     0.166665     0.125002     0.930285    Uiso  ? O
   O164       1.0     0.499999     0.125002     0.930285    Uiso  ? O
   O164       1.0     0.833332     0.125002     0.930285    Uiso  ? O
   O165       1.0     0.166665     0.375003     0.180285    Uiso  ? O
   O165       1.0     0.499998     0.375003     0.180285    Uiso  ? O
   O165       1.0     0.833332     0.375003     0.180285    Uiso  ? O
   O166       1.0     0.166665     0.375002     0.430285    Uiso  ? O
   O166       1.0     0.499998     0.375002     0.430285    Uiso  ? O
   O166       1.0     0.833332     0.375002     0.430285    Uiso  ? O
   O167       1.0     0.166665     0.375003     0.680285    Uiso  ? O
   O167       1.0     0.499998     0.375003     0.680285    Uiso  ? O
   O167       1.0     0.833332     0.375003     0.680285    Uiso  ? O
   O168       1.0     0.166665     0.375002     0.930285    Uiso  ? O
   O168       1.0     0.499999     0.375002     0.930285    Uiso  ? O
   O168       1.0     0.833332     0.375002     0.930285    Uiso  ? O
   O169       1.0     0.166665     0.625003     0.180284    Uiso  ? O
   O169       1.0     0.499999     0.625003     0.180284    Uiso  ? O
   O169       1.0     0.833332     0.625003     0.180284    Uiso  ? O
   O170       1.0     0.166665     0.625003     0.430285    Uiso  ? O
   O170       1.0     0.499998     0.625003     0.430285    Uiso  ? O
   O170       1.0     0.833332     0.625003     0.430285    Uiso  ? O
   O171       1.0     0.166665     0.625002     0.680285    Uiso  ? O
   O171       1.0     0.499999     0.625002     0.680285    Uiso  ? O
   O171       1.0     0.833332     0.625002     0.680285    Uiso  ? O
   O172       1.0     0.166666     0.625002     0.930285    Uiso  ? O
   O172       1.0     0.499999     0.625002     0.930285    Uiso  ? O
   O172       1.0     0.833332     0.625002     0.930285    Uiso  ? O
   O173       1.0     0.166665     0.875002     0.180285    Uiso  ? O
   O173       1.0     0.499998     0.875002     0.180285    Uiso  ? O
   O173       1.0     0.833332     0.875002     0.180285    Uiso  ? O
   O174       1.0     0.166665     0.875002     0.430285    Uiso  ? O
   O174       1.0     0.499998     0.875002     0.430285    Uiso  ? O
   O174       1.0     0.833332     0.875002     0.430285    Uiso  ? O
   O175       1.0     0.166665     0.875002     0.680285    Uiso  ? O
   O175       1.0     0.499999     0.875002     0.680285    Uiso  ? O
   O175       1.0     0.833332     0.875002     0.680285    Uiso  ? O
   O176       1.0     0.166665     0.875002     0.930285    Uiso  ? O
   O176       1.0     0.499999     0.875002     0.930285    Uiso  ? O
   O176       1.0     0.833332     0.875002     0.930285    Uiso  ? O
   O177       1.0     0.249998     0.125002     0.180284    Uiso  ? O
   O177       1.0     0.583332     0.125002     0.180284    Uiso  ? O
   O177       1.0     0.916665     0.125002     0.180284    Uiso  ? O
   O178       1.0     0.249998     0.125002     0.430285    Uiso  ? O
   O178       1.0     0.583332     0.125002     0.430285    Uiso  ? O
   O178       1.0     0.916665     0.125002     0.430285    Uiso  ? O
   O179       1.0     0.249998     0.125003     0.680285    Uiso  ? O
   O179       1.0     0.583332     0.125003     0.680285    Uiso  ? O
   O179       1.0     0.916665     0.125003     0.680285    Uiso  ? O
   O180       1.0     0.249999     0.125002     0.930285    Uiso  ? O
   O180       1.0     0.583332     0.125002     0.930285    Uiso  ? O
   O180       1.0     0.916665     0.125002     0.930285    Uiso  ? O
   O181       1.0     0.249999     0.375002     0.180285    Uiso  ? O
   O181       1.0     0.583332     0.375002     0.180285    Uiso  ? O
   O181       1.0     0.916665     0.375002     0.180285    Uiso  ? O
   O182       1.0     0.249998     0.375002     0.430285    Uiso  ? O
   O182       1.0     0.583332     0.375002     0.430285    Uiso  ? O
   O182       1.0     0.916665     0.375002     0.430285    Uiso  ? O
   O183       1.0     0.249999     0.375003     0.680285    Uiso  ? O
   O183       1.0     0.583332     0.375003     0.680285    Uiso  ? O
   O183       1.0     0.916665     0.375003     0.680285    Uiso  ? O
   O184       1.0     0.249999     0.375002     0.930286    Uiso  ? O
   O184       1.0     0.583332     0.375002     0.930286    Uiso  ? O
   O184       1.0     0.916665     0.375002     0.930286    Uiso  ? O
   O185       1.0     0.249999     0.625002     0.180285    Uiso  ? O
   O185       1.0     0.583332     0.625002     0.180285    Uiso  ? O
   O185       1.0     0.916665     0.625002     0.180285    Uiso  ? O
   O186       1.0     0.249998     0.625002     0.430285    Uiso  ? O
   O186       1.0     0.583332     0.625002     0.430285    Uiso  ? O
   O186       1.0     0.916665     0.625002     0.430285    Uiso  ? O
   O187       1.0     0.249999     0.625002     0.680285    Uiso  ? O
   O187       1.0     0.583332     0.625002     0.680285    Uiso  ? O
   O187       1.0     0.916665     0.625002     0.680285    Uiso  ? O
   O188       1.0     0.249999     0.625002     0.930286    Uiso  ? O
   O188       1.0     0.583332     0.625002     0.930286    Uiso  ? O
   O188       1.0     0.916665     0.625002     0.930286    Uiso  ? O
   O189       1.0     0.249999     0.875003     0.180285    Uiso  ? O
   O189       1.0     0.583332     0.875003     0.180285    Uiso  ? O
   O189       1.0     0.916665     0.875003     0.180285    Uiso  ? O
   O190       1.0     0.249998     0.875002     0.430285    Uiso  ? O
   O190       1.0     0.583332     0.875002     0.430285    Uiso  ? O
   O190       1.0     0.916665     0.875002     0.430285    Uiso  ? O
   O191       1.0     0.249998     0.875003     0.680285    Uiso  ? O
   O191       1.0     0.583332     0.875003     0.680285    Uiso  ? O
   O191       1.0     0.916665     0.875003     0.680285    Uiso  ? O
   O192       1.0     0.249999     0.875003     0.930286    Uiso  ? O
   O192       1.0     0.583332     0.875003     0.930286    Uiso  ? O
   O192       1.0     0.916665     0.875003     0.930286    Uiso  ? O
