data_image0
_chemical_formula_structural       Co192Bi6La3Bi12La3Bi3La3Bi27La3Bi12La6Bi3La3Bi21La3Bi18La3Bi3La3Bi3La6Bi18La3Bi6La6Bi12La3O576
_chemical_formula_sum              "Co192 Bi144 La48 O576"
_cell_length_a       45.28786356152883
_cell_length_b       15.263136844221515
_cell_length_c       19.250811509119902
_cell_angle_alpha    92.75976359161592
_cell_angle_beta     89.34851789518454
_cell_angle_gamma    90.00750910733457

_space_group_name_H-M_alt    "P 1"
_space_group_IT_number       1

loop_
  _space_group_symop_operation_xyz
  'x, y, z'

loop_
  _atom_site_type_symbol
  _atom_site_label
  _atom_site_symmetry_multiplicity
  _atom_site_fract_x
  _atom_site_fract_y
  _atom_site_fract_z
  _atom_site_occupancy
  Co  Co1       1.0  0.040731820181673935  0.11965171741447832  0.14423912549641582  1.0000
  Co  Co2       1.0  0.37406511930610725  0.1196517089660578  0.14423931299824794  1.0000
  Co  Co3       1.0  0.7073983744714325  0.11965162819460949  0.14423917119294202  1.0000
  Co  Co4       1.0  0.04122374817385251  0.12054546067238688  0.3928390454496784  1.0000
  Co  Co5       1.0  0.3745570455435684  0.12054549851226928  0.3928388989248396  1.0000
  Co  Co6       1.0  0.7078904690149822  0.12054545338126559  0.39283868650609033  1.0000
  Co  Co7       1.0  0.04373319403690873  0.12315743605017057  0.6440113316004007  1.0000
  Co  Co8       1.0  0.3770665002026486  0.12315743982080295  0.6440113175774277  1.0000
  Co  Co9       1.0  0.7103998821420912  0.12315739609027017  0.6440114733558405  1.0000
  Co  Co10      1.0  0.04095416475755115  0.1275293236202704  0.8938262091121186  1.0000
  Co  Co11      1.0  0.37428753931193137  0.12752913969410812  0.89382613275463  1.0000
  Co  Co12      1.0  0.7076207895801228  0.1275294364399114  0.8938259280440864  1.0000
  Co  Co13      1.0  0.041718188230276405  0.3743654968681476  0.14239691209187202  1.0000
  Co  Co14      1.0  0.3750513368419764  0.37436509372886934  0.1423971724165413  1.0000
  Co  Co15      1.0  0.7083848311585517  0.3743652305331535  0.1423967893682957  1.0000
  Co  Co16      1.0  0.04155764077252012  0.3740442994319749  0.39195066559265856  1.0000
  Co  Co17      1.0  0.3748909585704019  0.3740443281672487  0.3919505774821751  1.0000
  Co  Co18      1.0  0.7082240697266092  0.3740440824245798  0.3919504320178204  1.0000
  Co  Co19      1.0  0.04238505677426336  0.3716011299393447  0.6409850802655476  1.0000
  Co  Co20      1.0  0.3757182670177953  0.37160086189192354  0.6409851060399014  1.0000
  Co  Co21      1.0  0.7090516180880388  0.3716005963197325  0.6409851081790379  1.0000
  Co  Co22      1.0  0.04180192122969688  0.37991172350498864  0.8932454495221088  1.0000
  Co  Co23      1.0  0.3751353612765118  0.3799114895900167  0.8932457133218283  1.0000
  Co  Co24      1.0  0.7084686605098602  0.37991163063799094  0.8932454583986674  1.0000
  Co  Co25      1.0  0.040441081433728904  0.6218598043802802  0.14532872256651141  1.0000
  Co  Co26      1.0  0.37377459433315363  0.6218600770216121  0.1453287714285289  1.0000
  Co  Co27      1.0  0.7071078147594155  0.6218596010261168  0.14532862492701817  1.0000
  Co  Co28      1.0  0.04195933590990901  0.6237731394002355  0.39604629783432826  1.0000
  Co  Co29      1.0  0.37529280284948396  0.6237729879234878  0.39604626958321204  1.0000
  Co  Co30      1.0  0.7086259589313594  0.6237731747931208  0.39604603399898364  1.0000
  Co  Co31      1.0  0.04130440960378961  0.6200962653165413  0.6425674030677027  1.0000
  Co  Co32      1.0  0.3746376636323994  0.6200962516520465  0.642567530482289  1.0000
  Co  Co33      1.0  0.7079710467669572  0.6200962356587754  0.6425671926249482  1.0000
  Co  Co34      1.0  0.0426308326005078  0.625899264883006  0.8944864735061215  1.0000
  Co  Co35      1.0  0.37596392453830024  0.6258983167987004  0.8944862769884179  1.0000
  Co  Co36      1.0  0.70929721287951  0.625898608287137  0.8944861347619953  1.0000
  Co  Co37      1.0  0.04037387788454345  0.8721042491573978  0.1413440796186733  1.0000
  Co  Co38      1.0  0.37370723314312765  0.8721038785506373  0.1413434414391886  1.0000
  Co  Co39      1.0  0.7070405083871586  0.8721042712696437  0.14134370231371293  1.0000
  Co  Co40      1.0  0.04312451742751005  0.876350963361714  0.3921797585736682  1.0000
  Co  Co41      1.0  0.3764579966875786  0.8763511671557312  0.39217990517156226  1.0000
  Co  Co42      1.0  0.7097913101422231  0.8763510643081757  0.3921797848890947  1.0000
  Co  Co43      1.0  0.0410768670012251  0.8752674178644112  0.6430675329112981  1.0000
  Co  Co44      1.0  0.37441010683804277  0.8752675151500968  0.6430675876065028  1.0000
  Co  Co45      1.0  0.7077434723384264  0.8752672259147072  0.6430674100679226  1.0000
  Co  Co46      1.0  0.04189351074277599  0.8783127046763143  0.892027326200366  1.0000
  Co  Co47      1.0  0.3752270879363793  0.8783129722052727  0.8920272797787572  1.0000
  Co  Co48      1.0  0.7085599892402592  0.8783127192754041  0.8920273711029248  1.0000
  Co  Co49      1.0  0.12290350857990466  0.11894209571850102  0.14502134632035657  1.0000
  Co  Co50      1.0  0.45623673834556744  0.11894234803861245  0.1450216143345693  1.0000
  Co  Co51      1.0  0.7895700817264109  0.11894229006544768  0.14502107459019423  1.0000
  Co  Co52      1.0  0.12581495291409295  0.12519968006527793  0.3916892783052686  1.0000
  Co  Co53      1.0  0.4591482315867917  0.12519974032926454  0.39168918676622194  1.0000
  Co  Co54      1.0  0.792481578009885  0.1251994462575016  0.39168896079197985  1.0000
  Co  Co55      1.0  0.12576068876817448  0.11922293888825547  0.6422631169968278  1.0000
  Co  Co56      1.0  0.45909403266587573  0.11922260154811246  0.6422630226421789  1.0000
  Co  Co57      1.0  0.7924273993716174  0.1192229037063558  0.6422630729639774  1.0000
  Co  Co58      1.0  0.12525058992332982  0.12613532307684458  0.8945007561537149  1.0000
  Co  Co59      1.0  0.4585840667524459  0.12613559232221763  0.8945008611256323  1.0000
  Co  Co60      1.0  0.7919173245029256  0.1261351273542387  0.8945008147478724  1.0000
  Co  Co61      1.0  0.12390766036556819  0.37185835456745436  0.14277533061156322  1.0000
  Co  Co62      1.0  0.4572410875905504  0.37185808413072924  0.14277580267370746  1.0000
  Co  Co63      1.0  0.7905742171079599  0.37185802547490715  0.14277575155951988  1.0000
  Co  Co64      1.0  0.12486104276466414  0.3745845913786714  0.3932199721538542  1.0000
  Co  Co65      1.0  0.45819440925996646  0.3745849796964606  0.39322004061046567  1.0000
  Co  Co66      1.0  0.7915276283596113  0.37458481706871893  0.3932198611544678  1.0000
  Co  Co67      1.0  0.12685289959193363  0.37287621967290574  0.6421351425044306  1.0000
  Co  Co68      1.0  0.4601862661159107  0.37287575835994646  0.6421349074341418  1.0000
  Co  Co69      1.0  0.793519554023751  0.372875823205436  0.6421349389330959  1.0000
  Co  Co70      1.0  0.1250963280314543  0.38068685348411424  0.8916862166482663  1.0000
  Co  Co71      1.0  0.45842969006109135  0.3806867721619994  0.891686674463191  1.0000
  Co  Co72      1.0  0.7917630106849728  0.3806864141741182  0.891686179222241  1.0000
  Co  Co73      1.0  0.1251621702572861  0.6242700808602171  0.1451199026059485  1.0000
  Co  Co74      1.0  0.45849548148466623  0.6242704750414708  0.14511989662012692  1.0000
  Co  Co75      1.0  0.7918287472124095  0.6242702275802418  0.1451197112825894  1.0000
  Co  Co76      1.0  0.12539093374867674  0.6196049499610363  0.3962753173334227  1.0000
  Co  Co77      1.0  0.45872430790916124  0.6196049135070942  0.396275521210081  1.0000
  Co  Co78      1.0  0.7920575841561038  0.6196049523233356  0.3962753013669233  1.0000
  Co  Co79      1.0  0.12619933996652719  0.6257215453089656  0.6479745040093173  1.0000
  Co  Co80      1.0  0.4595326734141742  0.6257218010087608  0.6479745121255092  1.0000
  Co  Co81      1.0  0.792865995854808  0.6257214633062697  0.6479742580300499  1.0000
  Co  Co82      1.0  0.12445854324503847  0.6259861045955992  0.895758629021769  1.0000
  Co  Co83      1.0  0.45779197057906773  0.625985995213902  0.8957586478049215  1.0000
  Co  Co84      1.0  0.7911252342965299  0.6259860053825272  0.8957583271405596  1.0000
  Co  Co85      1.0  0.125009063453763  0.8777670982442383  0.14491808832837638  1.0000
  Co  Co86      1.0  0.45834236804758766  0.8777670237955256  0.1449180495762776  1.0000
  Co  Co87      1.0  0.79167571946299  0.8777674088650355  0.1449181502318792  1.0000
  Co  Co88      1.0  0.12511660784286013  0.8695251111155131  0.3936357690537293  1.0000
  Co  Co89      1.0  0.45844984848305836  0.869525337390467  0.3936357336924191  1.0000
  Co  Co90      1.0  0.7917832220245218  0.8695252527277617  0.3936356454060675  1.0000
  Co  Co91      1.0  0.1255004000671986  0.8699499759731202  0.6453492913837019  1.0000
  Co  Co92      1.0  0.45883369308872446  0.8699499192707296  0.6453490607314929  1.0000
  Co  Co93      1.0  0.7921670025425932  0.8699499995612541  0.6453493243003309  1.0000
  Co  Co94      1.0  0.1257696503425427  0.8788726727568319  0.8962562085213088  1.0000
  Co  Co95      1.0  0.45910301857018077  0.878872664651446  0.8962564495566689  1.0000
  Co  Co96      1.0  0.792436322841147  0.8788725745217838  0.8962559079945074  1.0000
  Co  Co97      1.0  0.20891523262349043  0.12512470734120426  0.14525603013379437  1.0000
  Co  Co98      1.0  0.5422482721113366  0.12512456403349123  0.14525610718022297  1.0000
  Co  Co99      1.0  0.8755817321382027  0.12512480864875009  0.1452559453121189  1.0000
  Co  Co100     1.0  0.2083860865554442  0.12277234899479106  0.39403374742946906  1.0000
  Co  Co101     1.0  0.5417194599992117  0.12277222336448147  0.39403398568958736  1.0000
  Co  Co102     1.0  0.8750527092311364  0.12277216753847568  0.3940336461088855  1.0000
  Co  Co103     1.0  0.21011796523720377  0.12229065669375154  0.6422189668500687  1.0000
  Co  Co104     1.0  0.5434513611447219  0.12229072470971725  0.6422191418872106  1.0000
  Co  Co105     1.0  0.8767846640632484  0.12229059258194552  0.64221895129593  1.0000
  Co  Co106     1.0  0.20800758962127125  0.12481007742406251  0.8938764791840963  1.0000
  Co  Co107     1.0  0.5413409717917782  0.12480967409360004  0.8938762432870458  1.0000
  Co  Co108     1.0  0.8746743626013843  0.12480969973241732  0.8938763590972237  1.0000
  Co  Co109     1.0  0.20678524297319578  0.3704520629215375  0.14379610253819858  1.0000
  Co  Co110     1.0  0.5401185716762706  0.37045187411334535  0.1437966308476407  1.0000
  Co  Co111     1.0  0.8734519154283042  0.37045197607170544  0.1437963066372867  1.0000
  Co  Co112     1.0  0.20994533955699954  0.37474285574882016  0.3933606546592991  1.0000
  Co  Co113     1.0  0.5432787101881164  0.3747429911807906  0.3933606645785063  1.0000
  Co  Co114     1.0  0.8766120321030831  0.3747431303193233  0.3933604201085442  1.0000
  Co  Co115     1.0  0.20959792763983376  0.37883801767393654  0.6486682363296615  1.0000
  Co  Co116     1.0  0.542931322704293  0.37883798077552117  0.6486682886850387  1.0000
  Co  Co117     1.0  0.8762645740455326  0.3788379651326073  0.6486681466182536  1.0000
  Co  Co118     1.0  0.2086487303467608  0.37607602434294607  0.8930192065517792  1.0000
  Co  Co119     1.0  0.5419821056588604  0.37607587281372074  0.8930194286126103  1.0000
  Co  Co120     1.0  0.8753154411112186  0.37607599930203967  0.8930192117886184  1.0000
  Co  Co121     1.0  0.20648618632153778  0.6224277589397382  0.1435806362036401  1.0000
  Co  Co122     1.0  0.5398196227112535  0.622427836456074  0.14358077124214896  1.0000
  Co  Co123     1.0  0.8731528975404907  0.6224278636450999  0.14358045239568148  1.0000
  Co  Co124     1.0  0.20888158498817352  0.6210850745619115  0.3953491357790246  1.0000
  Co  Co125     1.0  0.5422149958709023  0.6210851130595123  0.3953494228482105  1.0000
  Co  Co126     1.0  0.8755483281870132  0.6210851134307469  0.39534918374073247  1.0000
  Co  Co127     1.0  0.2077625846618631  0.623402349839254  0.6499734168834141  1.0000
  Co  Co128     1.0  0.5410959646442416  0.6234027867912093  0.6499733249850325  1.0000
  Co  Co129     1.0  0.8744291951143658  0.6234025068563775  0.649973379228049  1.0000
  Co  Co130     1.0  0.20973422742594025  0.6301591704257349  0.8961742084606654  1.0000
  Co  Co131     1.0  0.5430675556414303  0.6301589220662792  0.896174411690026  1.0000
  Co  Co132     1.0  0.8764007993309587  0.6301589029307672  0.8961739168086781  1.0000
  Co  Co133     1.0  0.20800701759134643  0.8755231073168358  0.14680961570814863  1.0000
  Co  Co134     1.0  0.5413402810010216  0.8755233361435921  0.14680961506516307  1.0000
  Co  Co135     1.0  0.8746736551242023  0.8755233761835692  0.14680950035027326  1.0000
  Co  Co136     1.0  0.20745007942023147  0.8717879594372491  0.3938041144259055  1.0000
  Co  Co137     1.0  0.5407837035688212  0.8717883892716652  0.39380421469804877  1.0000
  Co  Co138     1.0  0.8741169120336522  0.8717881942858298  0.3938039687160469  1.0000
  Co  Co139     1.0  0.20903899782112773  0.8678167706211806  0.643527930952664  1.0000
  Co  Co140     1.0  0.542372461382985  0.8678168382593494  0.6435279143448084  1.0000
  Co  Co141     1.0  0.8757056220079418  0.8678168753503044  0.643527758321101  1.0000
  Co  Co142     1.0  0.20815048539645367  0.8791299450625221  0.8982979803715029  1.0000
  Co  Co143     1.0  0.5414837688060995  0.8791301948129016  0.8982981224909528  1.0000
  Co  Co144     1.0  0.874817099382074  0.8791302515273643  0.8982979585989391  1.0000
  Co  Co145     1.0  0.290490330141245  0.12180926710029572  0.1439659987205377  1.0000
  Co  Co146     1.0  0.6238238048430439  0.12180933720600845  0.14396600459234152  1.0000
  Co  Co147     1.0  0.9571569227455783  0.12180903207391641  0.14396600210996102  1.0000
  Co  Co148     1.0  0.2924856161643557  0.12025684379543457  0.39443631136686275  1.0000
  Co  Co149     1.0  0.625818940644149  0.12025685438072832  0.39443651939065727  1.0000
  Co  Co150     1.0  0.9591522068824172  0.12025695864636336  0.39443623762445673  1.0000
  Co  Co151     1.0  0.29078503940109784  0.12541993991749467  0.6445312514884471  1.0000
  Co  Co152     1.0  0.6241184340581358  0.12542006766572458  0.6445311419498172  1.0000
  Co  Co153     1.0  0.9574517297716324  0.12541962901962855  0.6445314596243972  1.0000
  Co  Co154     1.0  0.29313307998349386  0.12731674666163154  0.8933615056889095  1.0000
  Co  Co155     1.0  0.6264663458357786  0.12731702082037893  0.8933613025399579  1.0000
  Co  Co156     1.0  0.9597997547337316  0.1273170517207031  0.8933614526319261  1.0000
  Co  Co157     1.0  0.29090396784584277  0.3743129024784388  0.14150113476464354  1.0000
  Co  Co158     1.0  0.6242373150499787  0.37431285658807933  0.14150112334930207  1.0000
  Co  Co159     1.0  0.9575706191411519  0.3743130930053408  0.14150074447618627  1.0000
  Co  Co160     1.0  0.29072398016444634  0.37477258411167313  0.39277516298154974  1.0000
  Co  Co161     1.0  0.6240572984191153  0.37477273086750296  0.3927752547841341  1.0000
  Co  Co162     1.0  0.9573906315215026  0.3747726979098301  0.392774981994442  1.0000
  Co  Co163     1.0  0.2922483403097275  0.37540816877648076  0.6467568264510666  1.0000
  Co  Co164     1.0  0.6255816217361863  0.37540819106583295  0.6467566661172998  1.0000
  Co  Co165     1.0  0.9589148807089168  0.37540757836025757  0.646756618419744  1.0000
  Co  Co166     1.0  0.29138447259760875  0.3744673921723239  0.8948676331846782  1.0000
  Co  Co167     1.0  0.6247177651001039  0.37446741499431213  0.8948678114923796  1.0000
  Co  Co168     1.0  0.9580510978165147  0.37446732077942924  0.8948675498463458  1.0000
  Co  Co169     1.0  0.29106251060971566  0.6207738743865465  0.14407337339719534  1.0000
  Co  Co170     1.0  0.6243958125278278  0.6207740010458074  0.14407312017838694  1.0000
  Co  Co171     1.0  0.957729136273386  0.6207742514904058  0.14407327621756583  1.0000
  Co  Co172     1.0  0.29140157719087395  0.6216996204023052  0.39629192432114735  1.0000
  Co  Co173     1.0  0.6247350029837232  0.6216998254171489  0.39629185663546185  1.0000
  Co  Co174     1.0  0.9580682628041252  0.6216998886209553  0.3962918452939747  1.0000
  Co  Co175     1.0  0.2933755667399988  0.6200310751412041  0.6478947897589459  1.0000
  Co  Co176     1.0  0.6267089162706329  0.6200309384778762  0.6478947909238197  1.0000
  Co  Co177     1.0  0.9600422510982243  0.6200312275075953  0.6478945920134538  1.0000
  Co  Co178     1.0  0.2905252899247564  0.6302365495170119  0.8943758819874184  1.0000
  Co  Co179     1.0  0.6238585632069521  0.6302365262492353  0.8943762327817877  1.0000
  Co  Co180     1.0  0.9571919918095221  0.6302367520412249  0.8943756431235854  1.0000
  Co  Co181     1.0  0.2901890730364466  0.8706550799010163  0.14521698268364208  1.0000
  Co  Co182     1.0  0.6235224091952598  0.8706552187949226  0.1452170499286861  1.0000
  Co  Co183     1.0  0.9568556830622291  0.8706549152963683  0.14521674407918345  1.0000
  Co  Co184     1.0  0.293097772112886  0.8782979243524228  0.3915134939785644  1.0000
  Co  Co185     1.0  0.6264309965605296  0.8782981365637267  0.391513377003426  1.0000
  Co  Co186     1.0  0.9597643845887168  0.8782978735849079  0.39151354813094263  1.0000
  Co  Co187     1.0  0.29240693241262605  0.8731951913965101  0.6435511803859014  1.0000
  Co  Co188     1.0  0.6257402526451209  0.8731955277396661  0.6435512012999195  1.0000
  Co  Co189     1.0  0.9590736653570451  0.8731952262996494  0.6435513653734773  1.0000
  Co  Co190     1.0  0.291937071064221  0.8774764583332464  0.8937670638249714  1.0000
  Co  Co191     1.0  0.6252702992496193  0.8774765385707821  0.8937668753815967  1.0000
  Co  Co192     1.0  0.9586035480325404  0.877476628887508  0.8937667895048522  1.0000
  Bi  Bi1       1.0  0.33318738863132275  0.014446033442709451  0.0003857395723172452  1.0000
  Bi  Bi2       1.0  0.6665207211235398  0.014446734097221723  0.00038577010425222547  1.0000
  Bi  Bi3       1.0  0.9998540881701816  0.014446457372474268  0.0003857599835228598  1.0000
  Bi  Bi4       1.0  0.32830402501777955  0.0023113414000843872  0.25121851049709254  1.0000
  Bi  Bi5       1.0  0.66163730874765  0.0023114020373885013  0.2512186662423731  1.0000
  Bi  Bi6       1.0  0.9949704747407091  0.0023110468697043014  0.25121869655399537  1.0000
  La  La1       1.0  0.3335629477613129  0.00556153595175529  0.5101979521169662  1.0000
  La  La2       1.0  0.6668962575310611  0.00556209051871349  0.5101974595616073  1.0000
  La  La3       1.0  0.00022969116758342345  0.005561913807376165  0.51019788610139  1.0000
  Bi  Bi7       1.0  0.3334486953152911  0.015979826345833722  0.7477776829081283  1.0000
  Bi  Bi8       1.0  0.6667821188093741  0.015979382906019603  0.7477773924651278  1.0000
  Bi  Bi9       1.0  0.0001154374857923468  0.015979247127683182  0.7477775336726546  1.0000
  Bi  Bi10      1.0  0.33253972829867445  0.2677186025629781  0.9982587404637706  1.0000
  Bi  Bi11      1.0  0.6658731270888149  0.26771888606391575  0.9982587248345494  1.0000
  Bi  Bi12      1.0  0.9992063916220477  0.26771900476146065  0.9982587282645526  1.0000
  Bi  Bi13      1.0  0.3317817461288635  0.2545566892944594  0.24195172347504448  1.0000
  Bi  Bi14      1.0  0.6651155454847919  0.25455756763291126  0.24195204243156979  1.0000
  Bi  Bi15      1.0  0.9984484139278827  0.2545566315046026  0.24195118676705724  1.0000
  Bi  Bi16      1.0  0.3325012735847178  0.2608691663300776  0.49158279427676826  1.0000
  Bi  Bi17      1.0  0.6658345383350724  0.260869013072612  0.4915832736407188  1.0000
  Bi  Bi18      1.0  0.999167793730461  0.2608691722839637  0.49158308276388646  1.0000
  La  La4       1.0  0.3335849081457848  0.2538729406643184  0.7550282683585064  1.0000
  La  La5       1.0  0.6669182538467957  0.2538725782973458  0.7550284333543907  1.0000
  La  La6       1.0  0.00025145834662243516  0.25387244872787346  0.7550282729469594  1.0000
  Bi  Bi19      1.0  0.3331443805997068  0.5198747378461192  0.997368065563588  1.0000
  Bi  Bi20      1.0  0.6664777409784927  0.5198748295848286  0.9973680268216478  1.0000
  Bi  Bi21      1.0  0.9998110680336687  0.5198752643223146  0.9973676276462455  1.0000
  La  La7       1.0  0.3320591098180849  0.5033016892378427  0.2554770122903571  1.0000
  La  La8       1.0  0.6653922270931787  0.5033015135626661  0.25547676562708177  1.0000
  La  La9       1.0  0.9987255318063691  0.5033016497428947  0.2554767938380661  1.0000
  Bi  Bi22      1.0  0.33260584885152555  0.5124907934027375  0.500879682729668  1.0000
  Bi  Bi23      1.0  0.6659391653722194  0.5124908775048626  0.5008798028157921  1.0000
  Bi  Bi24      1.0  0.9992724630354929  0.512490811038005  0.5008796072409044  1.0000
  Bi  Bi25      1.0  0.3364471892673501  0.5013943211024685  0.7486349090028547  1.0000
  Bi  Bi26      1.0  0.6697803749283051  0.5013932808264631  0.7486346512737544  1.0000
  Bi  Bi27      1.0  0.0031133292796614587  0.5013928365684011  0.7486339630150548  1.0000
  Bi  Bi28      1.0  0.332893734222142  0.7670697548622142  0.9986491174000418  1.0000
  Bi  Bi29      1.0  0.6662268376918052  0.7670699976626376  0.9986495773490364  1.0000
  Bi  Bi30      1.0  0.9995604605659699  0.7670701973916422  0.9986489411592522  1.0000
  Bi  Bi31      1.0  0.33165988271463176  0.7593185906192939  0.24642682166999597  1.0000
  Bi  Bi32      1.0  0.6649932529802788  0.7593180653681323  0.24642656506884675  1.0000
  Bi  Bi33      1.0  0.9983266943414926  0.7593184720277971  0.24642694558025896  1.0000
  Bi  Bi34      1.0  0.3338798990245595  0.7655750155757058  0.49665579378801916  1.0000
  Bi  Bi35      1.0  0.6672131891835689  0.7655749832290766  0.49665557968767576  1.0000
  Bi  Bi36      1.0  0.0005464543591693349  0.7655749957506286  0.49665587420798346  1.0000
  Bi  Bi37      1.0  0.33159420799643363  0.7615613631594986  0.7477152417720786  1.0000
  Bi  Bi38      1.0  0.6649274769125817  0.7615609867776141  0.7477146076173563  1.0000
  Bi  Bi39      1.0  0.9982610655289631  0.761561316773415  0.7477147499937757  1.0000
  Bi  Bi40      1.0  0.08193444798096795  0.017518327558960822  0.9999482434310442  1.0000
  Bi  Bi41      1.0  0.4152677419523418  0.017518500786487336  0.9999488514218822  1.0000
  Bi  Bi42      1.0  0.7486008731730298  0.01751799698619242  0.9999481288222247  1.0000
  Bi  Bi43      1.0  0.07796929244149438  0.002593608237263987  0.24954179504293547  1.0000
  Bi  Bi44      1.0  0.4113026749904332  0.0025936413731521366  0.249541699390979  1.0000
  Bi  Bi45      1.0  0.7446360246719919  0.002593936392081194  0.24954177953856024  1.0000
  Bi  Bi46      1.0  0.08341159349301931  0.01545003821923581  0.4976589749122823  1.0000
  Bi  Bi47      1.0  0.4167448545961738  0.01545053804051297  0.4976589922781722  1.0000
  Bi  Bi48      1.0  0.7500782618096845  0.015450160686946502  0.49765901597344847  1.0000
  La  La10      1.0  0.0836995740582272  0.0026084765538112757  0.7563035467660524  1.0000
  La  La11      1.0  0.41703277057353866  0.0026087183384079916  0.7563037728059671  1.0000
  La  La12      1.0  0.7503661610576122  0.0026082866817379344  0.7563038719232021  1.0000
  Bi  Bi49      1.0  0.08306631463575749  0.2675311631891006  0.9962257128573663  1.0000
  Bi  Bi50      1.0  0.4163995882592868  0.26753025912859063  0.996225942574164  1.0000
  Bi  Bi51      1.0  0.7497329473541485  0.2675306111315901  0.9962257356995041  1.0000
  Bi  Bi52      1.0  0.08100388988597611  0.25729736445430434  0.24819525125371614  1.0000
  Bi  Bi53      1.0  0.41433734480233625  0.2572980735566249  0.24819546386042515  1.0000
  Bi  Bi54      1.0  0.7476706546620926  0.2572971441702589  0.24819575695302856  1.0000
  Bi  Bi55      1.0  0.08109777912771202  0.25786391593808344  0.4969335174155764  1.0000
  Bi  Bi56      1.0  0.4144310044079751  0.25786380463472475  0.49693326726328635  1.0000
  Bi  Bi57      1.0  0.7477643211094245  0.25786372953893144  0.4969330856703703  1.0000
  Bi  Bi58      1.0  0.08474408254130969  0.2596322779687725  0.7422677971184772  1.0000
  Bi  Bi59      1.0  0.41807733482333465  0.2596321257192878  0.7422676497538764  1.0000
  Bi  Bi60      1.0  0.7514108015548391  0.2596320642492371  0.7422678817192462  1.0000
  La  La13      1.0  0.08314179112229804  0.5084598162735988  0.010996963269241933  1.0000
  La  La14      1.0  0.41647512022771127  0.5084597719765169  0.010997077771387254  1.0000
  La  La15      1.0  0.7498084868858848  0.5084598501494979  0.010996652097509108  1.0000
  La  La16      1.0  0.08223075464758235  0.504221590516694  0.2566014420449476  1.0000
  La  La17      1.0  0.41556418428618247  0.5042216107918595  0.2566008856501118  1.0000
  La  La18      1.0  0.7488974332724412  0.5042211728831706  0.25660111652781065  1.0000
  Bi  Bi61      1.0  0.0805194359223085  0.5041839199367054  0.4993322743864482  1.0000
  Bi  Bi62      1.0  0.4138527947350628  0.5041837474031478  0.4993327359400986  1.0000
  Bi  Bi63      1.0  0.7471860885937519  0.5041835348529398  0.49933216346947906  1.0000
  La  La19      1.0  0.08390350102428798  0.5035416199806696  0.7559428965272454  1.0000
  La  La20      1.0  0.41723699663089525  0.5035415817863139  0.7559426879944509  1.0000
  La  La21      1.0  0.7505701626914619  0.5035415720196385  0.7559425977219356  1.0000
  Bi  Bi64      1.0  0.08258256406577227  0.7661147525707971  0.9936169489208121  1.0000
  Bi  Bi65      1.0  0.41591575216246385  0.7661142220500208  0.9936163495170403  1.0000
  Bi  Bi66      1.0  0.7492490894778017  0.7661148077081084  0.9936161024740446  1.0000
  Bi  Bi67      1.0  0.08298749249127746  0.760092511120276  0.24369007206585194  1.0000
  Bi  Bi68      1.0  0.4163207954164271  0.7600929040257973  0.24369016631341517  1.0000
  Bi  Bi69      1.0  0.7496540698113491  0.7600927209246837  0.24368977039332174  1.0000
  Bi  Bi70      1.0  0.08382689188520596  0.7613638200208211  0.4979802359507799  1.0000
  Bi  Bi71      1.0  0.4171604584669811  0.7613640710819259  0.4979805002483293  1.0000
  Bi  Bi72      1.0  0.7504936466384207  0.7613639023176885  0.4979803317818591  1.0000
  Bi  Bi73      1.0  0.07994250329450218  0.7529406589629066  0.7426973243096469  1.0000
  Bi  Bi74      1.0  0.4132758410507465  0.7529422344135914  0.7426971562810075  1.0000
  Bi  Bi75      1.0  0.7466091281184699  0.7529417671178857  0.7426968641672911  1.0000
  Bi  Bi76      1.0  0.164566615441477  0.009709799737322115  0.0014728295016601667  1.0000
  Bi  Bi77      1.0  0.49789971525479243  0.009709094426771722  0.0014728622547559578  1.0000
  Bi  Bi78      1.0  0.8312326099368298  0.009708774068028106  0.0014722049348525612  1.0000
  Bi  Bi79      1.0  0.1657187414833391  0.015340550593182734  0.25036756549717226  1.0000
  Bi  Bi80      1.0  0.4990520043979208  0.015340451080201193  0.25036780405045694  1.0000
  Bi  Bi81      1.0  0.8323854356724631  0.015340748853296879  0.25036735183069897  1.0000
  Bi  Bi82      1.0  0.16455299280381053  0.004275142119818437  0.49409754955076773  1.0000
  Bi  Bi83      1.0  0.4978863342133165  0.004275293073809023  0.49409728375055495  1.0000
  Bi  Bi84      1.0  0.8312196359785983  0.004274944952302382  0.49409744289781454  1.0000
  La  La22      1.0  0.16649638471764147  0.0005848968545865582  0.7537020945921743  1.0000
  La  La23      1.0  0.49982973714799345  0.0005849117835630863  0.7537019772145449  1.0000
  La  La24      1.0  0.8331629794506374  0.0005848690875607027  0.7537022394270229  1.0000
  Bi  Bi85      1.0  0.16656972888253974  0.2646052259445067  0.9945026088294714  1.0000
  Bi  Bi86      1.0  0.4999032389562548  0.26460484481764013  0.9945027453754276  1.0000
  Bi  Bi87      1.0  0.833236438737226  0.2646049041620859  0.9945024953397578  1.0000
  Bi  Bi88      1.0  0.16214795699619136  0.25305193561317  0.24830053249748724  1.0000
  Bi  Bi89      1.0  0.4954813516362555  0.2530521715107851  0.2483009870405277  1.0000
  Bi  Bi90      1.0  0.8288146440980465  0.2530519477403513  0.24830036476295608  1.0000
  Bi  Bi91      1.0  0.16542879544419906  0.259567170541941  0.4938887631675844  1.0000
  Bi  Bi92      1.0  0.4987620557396423  0.25956712460488746  0.4938885846607967  1.0000
  Bi  Bi93      1.0  0.8320953266661116  0.25956720791272453  0.4938883383597731  1.0000
  Bi  Bi94      1.0  0.16973709014259522  0.25175149779185074  0.7431188738950292  1.0000
  Bi  Bi95      1.0  0.503070339374918  0.2517515783728671  0.7431188842567784  1.0000
  Bi  Bi96      1.0  0.8364036896438399  0.2517513958915712  0.7431188711647507  1.0000
  Bi  Bi97      1.0  0.16716517771158518  0.5175409956658789  0.9973965839652792  1.0000
  Bi  Bi98      1.0  0.5004985903734203  0.5175408109817716  0.9973967999626845  1.0000
  Bi  Bi99      1.0  0.8338317974356974  0.5175410909410846  0.9973966741314627  1.0000
  Bi  Bi100     1.0  0.16493941057157716  0.5085410050135973  0.2460336739460554  1.0000
  Bi  Bi101     1.0  0.49827271856287275  0.5085412267582662  0.2460337782162542  1.0000
  Bi  Bi102     1.0  0.8316060954068587  0.5085411364833196  0.24603350020083417  1.0000
  La  La25      1.0  0.16677457745187108  0.5027490776457847  0.5072041835013662  1.0000
  La  La26      1.0  0.5001080966705357  0.5027489468572095  0.507204445407389  1.0000
  La  La27      1.0  0.8334413377223674  0.5027490833246788  0.50720430658611  1.0000
  Bi  Bi103     1.0  0.16378042284176728  0.5030314478021349  0.7521829463518781  1.0000
  Bi  Bi104     1.0  0.49711379619530366  0.5030316639755527  0.7521829798184448  1.0000
  Bi  Bi105     1.0  0.8304470026314749  0.5030316599686027  0.7521830855451264  1.0000
  La  La28      1.0  0.16653028378581605  0.7574310525750744  0.009508735965124249  1.0000
  La  La29      1.0  0.499863351836851  0.7574304995587858  0.00950920023701518  1.0000
  La  La30      1.0  0.8331967583103751  0.7574309128108925  0.009508661981120659  1.0000
  Bi  Bi106     1.0  0.16507639599759633  0.7661584688357873  0.25269093450244823  1.0000
  Bi  Bi107     1.0  0.49840978844625927  0.7661586931437055  0.2526910281034703  1.0000
  Bi  Bi108     1.0  0.8317431671106779  0.7661585426849884  0.2526907722834018  1.0000
  La  La31      1.0  0.16671806015568066  0.7481348307931089  0.5095481911485435  1.0000
  La  La32      1.0  0.5000516207925771  0.7481350574004166  0.5095479434967117  1.0000
  La  La33      1.0  0.8333847382167978  0.7481346875323249  0.5095479751950482  1.0000
  La  La34      1.0  0.16644156031262253  0.7561380452684754  0.7621572896785187  1.0000
  La  La35      1.0  0.4997747953990195  0.7561383569586576  0.7621573337850778  1.0000
  La  La36      1.0  0.8331082781250825  0.7561379291786556  0.7621573237494926  1.0000
  Bi  Bi109     1.0  0.2502199164679606  0.020507185176377472  0.9982158607210256  1.0000
  Bi  Bi110     1.0  0.5835532356227124  0.02050688702510161  0.9982156981691462  1.0000
  Bi  Bi111     1.0  0.9168865602018533  0.020507003210424493  0.9982158222729173  1.0000
  Bi  Bi112     1.0  0.24840341977930763  0.011797229808713195  0.2517718611018503  1.0000
  Bi  Bi113     1.0  0.5817367634023666  0.011797789395449948  0.25177126773017067  1.0000
  Bi  Bi114     1.0  0.915070160011521  0.011797544170510864  0.2517713701789055  1.0000
  Bi  Bi115     1.0  0.24957756062696848  0.012062588652132753  0.498296156275364  1.0000
  Bi  Bi116     1.0  0.5829108416627983  0.012062330194143357  0.498296313535677  1.0000
  Bi  Bi117     1.0  0.9162443075121864  0.012062234442661926  0.4982958589848965  1.0000
  Bi  Bi118     1.0  0.2488540806576496  0.004378233914896963  0.7437450248500956  1.0000
  Bi  Bi119     1.0  0.5821874319033782  0.004378184362644085  0.7437448224326846  1.0000
  Bi  Bi120     1.0  0.9155207567661486  0.004377826877948154  0.7437449443908168  1.0000
  Bi  Bi121     1.0  0.2487773486574561  0.2627295012738672  0.0017688737057206527  1.0000
  Bi  Bi122     1.0  0.5821107103502062  0.26272928691526914  0.001769182379513401  1.0000
  Bi  Bi123     1.0  0.9154436749743301  0.26272885850947  0.0017689489254795188  1.0000
  Bi  Bi124     1.0  0.24842511015497376  0.26463093375790564  0.24967504344841696  1.0000
  Bi  Bi125     1.0  0.5817585332021613  0.26463062975501284  0.24967470498756525  1.0000
  Bi  Bi126     1.0  0.91509182982046  0.2646310259529227  0.2496750581985517  1.0000
  La  La37      1.0  0.24952012288717673  0.25482612073452476  0.5067433877998196  1.0000
  La  La38      1.0  0.5828533775542996  0.25482634371359897  0.5067434739638375  1.0000
  La  La39      1.0  0.9161868190424642  0.2548258572597961  0.5067430405050424  1.0000
  Bi  Bi127     1.0  0.2509013590012341  0.2656115193258053  0.7518069850099414  1.0000
  Bi  Bi128     1.0  0.5842347355325616  0.2656116745298148  0.7518069861584035  1.0000
  Bi  Bi129     1.0  0.9175680149917381  0.26561132237747503  0.7518070150329659  1.0000
  Bi  Bi130     1.0  0.25148520931140267  0.511411512355219  0.9976375282003904  1.0000
  Bi  Bi131     1.0  0.5848185093971321  0.5114115709817323  0.9976376197100375  1.0000
  Bi  Bi132     1.0  0.9181518230048594  0.5114116624571318  0.9976370545783061  1.0000
  La  La40      1.0  0.24882099472133148  0.5040368715205478  0.25536964577110116  1.0000
  La  La41      1.0  0.5821543841861754  0.5040368947058752  0.25537003039251677  1.0000
  La  La42      1.0  0.9154875384833832  0.5040369533633267  0.2553697071388044  1.0000
  La  La43      1.0  0.24966033727172465  0.5038216180951915  0.5105242175900299  1.0000
  La  La44      1.0  0.5829936515082424  0.5038215425043561  0.5105242457917057  1.0000
  La  La45      1.0  0.9163270103531798  0.5038214839930474  0.510524064790285  1.0000
  Bi  Bi133     1.0  0.2502671726190006  0.5164125140689833  0.7539877653679763  1.0000
  Bi  Bi134     1.0  0.5836004622521866  0.5164128135365263  0.7539878122013497  1.0000
  Bi  Bi135     1.0  0.9169336645133178  0.5164129051548383  0.7539874231382933  1.0000
  Bi  Bi136     1.0  0.24966853208334136  0.770234806570764  0.0019413289243024323  1.0000
  Bi  Bi137     1.0  0.5830016276974441  0.7702346651507253  0.0019416053753136264  1.0000
  Bi  Bi138     1.0  0.9163351175915652  0.7702346523441364  0.0019413701016686158  1.0000
  Bi  Bi139     1.0  0.24576192873433825  0.7519003744807646  0.24706828412265835  1.0000
  Bi  Bi140     1.0  0.5790954154264267  0.7519008586955178  0.2470682147422929  1.0000
  Bi  Bi141     1.0  0.9124286646604007  0.7519005243263558  0.24706807480749657  1.0000
  Bi  Bi142     1.0  0.2499862669277388  0.7636296854824995  0.4921341664705879  1.0000
  Bi  Bi143     1.0  0.5833193656302843  0.7636288872579138  0.49213424399749267  1.0000
  Bi  Bi144     1.0  0.9166525016473536  0.7636287812046425  0.492133678740465  1.0000
  La  La46      1.0  0.2497016637570302  0.7546233294535949  0.7579487912342335  1.0000
  La  La47      1.0  0.5830349805734413  0.7546239738160406  0.7579489722874124  1.0000
  La  La48      1.0  0.9163682494935896  0.7546233892015083  0.757948640480495  1.0000
  O   O1        1.0  0.04046782594348432  0.9966406469515942  0.17794080265677986  1.0000
  O   O2        1.0  0.3738011943381478  0.9966405457188309  0.17794051453098522  1.0000
  O   O3        1.0  0.7071344983015695  0.9966408267807743  0.17794094128768811  1.0000
  O   O4        1.0  0.042792594283858225  0.0011939882791895057  0.42967433393519067  1.0000
  O   O5        1.0  0.37612590320621886  0.0011943012880937314  0.4296743429163328  1.0000
  O   O6        1.0  0.7094593039892824  0.001194305506158982  0.4296742483695126  1.0000
  O   O7        1.0  0.041789748101486245  0.0009727171830248585  0.6790593697527421  1.0000
  O   O8        1.0  0.3751230307098834  0.0009729157428601024  0.6790593469630041  1.0000
  O   O9        1.0  0.7084562664930337  0.0009728064709032691  0.6790592625448431  1.0000
  O   O10       1.0  0.04046264379886419  0.003982741558966736  0.9281225726071121  1.0000
  O   O11       1.0  0.3737959982880848  0.003982728515393118  0.9281227242851229  1.0000
  O   O12       1.0  0.7071292223157531  0.0039828003900245655  0.9281226901415556  1.0000
  O   O13       1.0  0.04067541975662068  0.2480135705170594  0.17706823064227414  1.0000
  O   O14       1.0  0.37400868225680056  0.24801348968285264  0.17706824667553858  1.0000
  O   O15       1.0  0.7073419806601178  0.2480132660539098  0.1770679821286032  1.0000
  O   O16       1.0  0.0418895927680972  0.2495606504682484  0.426818153755666  1.0000
  O   O17       1.0  0.37522289877790055  0.24956087773404625  0.4268177631773718  1.0000
  O   O18       1.0  0.7085562215737456  0.24956069724126156  0.4268179601516273  1.0000
  O   O19       1.0  0.043361328881851506  0.24956441484022562  0.6784632100829884  1.0000
  O   O20       1.0  0.3766946558812793  0.24956393116823586  0.6784630929146599  1.0000
  O   O21       1.0  0.7100280027641074  0.249563989656418  0.6784633080930235  1.0000
  O   O22       1.0  0.04117334797140932  0.25515802807684246  0.9257155583968694  1.0000
  O   O23       1.0  0.3745068218408025  0.25515761338183657  0.9257155297994883  1.0000
  O   O24       1.0  0.7078401332410235  0.25515778713275444  0.9257153229595976  1.0000
  O   O25       1.0  0.041336943147751985  0.4988230730246969  0.17720426446126775  1.0000
  O   O26       1.0  0.37467040283658326  0.4988228638484247  0.17720421803421332  1.0000
  O   O27       1.0  0.7080037035966757  0.4988228591411462  0.17720397903554833  1.0000
  O   O28       1.0  0.04229157556027252  0.4981198637430954  0.4293293462313924  1.0000
  O   O29       1.0  0.37562499771342445  0.49811972879655325  0.4293291909398988  1.0000
  O   O30       1.0  0.708958184173077  0.4981194876993441  0.42932904096325625  1.0000
  O   O31       1.0  0.0419036435310837  0.49701817619888694  0.6773680064059084  1.0000
  O   O32       1.0  0.3752371844546023  0.4970183236490006  0.6773680859443844  1.0000
  O   O33       1.0  0.7085704298246875  0.4970181990938492  0.6773678004524822  1.0000
  O   O34       1.0  0.04142930014456368  0.5039425742844406  0.9301107297058739  1.0000
  O   O35       1.0  0.3747625644793309  0.5039421154261127  0.9301114928578594  1.0000
  O   O36       1.0  0.7080958735475985  0.503942217816578  0.9301111249631553  1.0000
  O   O37       1.0  0.04077438909537466  0.7496648796570893  0.1791286572012145  1.0000
  O   O38       1.0  0.37410782450694335  0.7496649554681303  0.17912829461866303  1.0000
  O   O39       1.0  0.7074411608728387  0.7496647474504463  0.1791281140665029  1.0000
  O   O40       1.0  0.042400586819376807  0.7508119117424888  0.42618174307506035  1.0000
  O   O41       1.0  0.3757340938215287  0.7508120943445311  0.4261814421989296  1.0000
  O   O42       1.0  0.7090672397097052  0.7508120341707337  0.4261812846246815  1.0000
  O   O43       1.0  0.03993324008245587  0.7491198994883723  0.6750151667645774  1.0000
  O   O44       1.0  0.3732663941505774  0.7491200105080557  0.6750154877996297  1.0000
  O   O45       1.0  0.7065997938292207  0.7491197232562042  0.6750147933077115  1.0000
  O   O46       1.0  0.04226217543259449  0.7538200451006198  0.92651594993555  1.0000
  O   O47       1.0  0.3755954679907408  0.753819685500497  0.9265152379016861  1.0000
  O   O48       1.0  0.7089285945071919  0.7538196658580893  0.9265157407293853  1.0000
  O   O49       1.0  0.12392131753626562  0.0001965806523175102  0.18414602377758363  1.0000
  O   O50       1.0  0.45725467424293353  0.0001962861268569734  0.184145838985957  1.0000
  O   O51       1.0  0.7905879787501903  0.00019661574116409326  0.1841457670209223  1.0000
  O   O52       1.0  0.1255485844839905  7.30885697156601e-05  0.42439103180525983  1.0000
  O   O53       1.0  0.4588818959327097  7.318791616221443e-05  0.424391038379429  1.0000
  O   O54       1.0  0.7922152376667102  7.291126385828839e-05  0.42439092616245155  1.0000
  O   O55       1.0  0.12490506989338568  0.9961587278354089  0.67600663742824  1.0000
  O   O56       1.0  0.45823850622538403  0.9961587268035474  0.676006817337408  1.0000
  O   O57       1.0  0.7915716259397757  0.9961585955124049  0.6760064926910966  1.0000
  O   O58       1.0  0.1251519082624036  0.0036945437207657962  0.9334905786233736  1.0000
  O   O59       1.0  0.45848522717449597  0.003694703135500863  0.9334905725077219  1.0000
  O   O60       1.0  0.7918186072873791  0.0036944888224008515  0.9334906763872649  1.0000
  O   O61       1.0  0.12324021418271229  0.24645894064261867  0.17917135731469183  1.0000
  O   O62       1.0  0.45657361999689405  0.24645898092316257  0.17917161525598502  1.0000
  O   O63       1.0  0.7899067785821403  0.2464591583288658  0.17917148736723612  1.0000
  O   O64       1.0  0.12498631094721621  0.2509187827169385  0.43000177041748666  1.0000
  O   O65       1.0  0.458319640240201  0.2509190446920611  0.43000154783695654  1.0000
  O   O66       1.0  0.7916530312768648  0.25091910845015647  0.43000110765531074  1.0000
  O   O67       1.0  0.12671776558878167  0.24907942471991476  0.67781007641667  1.0000
  O   O68       1.0  0.4600510831631896  0.24907911382380435  0.6778099173480995  1.0000
  O   O69       1.0  0.7933843673948437  0.24907925523132207  0.6778100551731734  1.0000
  O   O70       1.0  0.1250183614527243  0.2543351175620186  0.9237355519679287  1.0000
  O   O71       1.0  0.45835161930567153  0.2543349360412384  0.9237358682851697  1.0000
  O   O72       1.0  0.7916849585858722  0.25433492037075545  0.9237358349694725  1.0000
  O   O73       1.0  0.12564891905819617  0.49877188485538093  0.1762708631166582  1.0000
  O   O74       1.0  0.45898221752891066  0.4987720634249257  0.17627073289048953  1.0000
  O   O75       1.0  0.7923155063063391  0.4987716670837678  0.17627084870827206  1.0000
  O   O76       1.0  0.12305395680442001  0.4977885528672479  0.43315440919971165  1.0000
  O   O77       1.0  0.45638724083861587  0.4977886605737188  0.43315478978723304  1.0000
  O   O78       1.0  0.7897205692501005  0.4977883090417714  0.4331545185471001  1.0000
  O   O79       1.0  0.1269825630080462  0.4998000071361373  0.6775916001081507  1.0000
  O   O80       1.0  0.4603159048542227  0.49980012357763864  0.6775916002848127  1.0000
  O   O81       1.0  0.7936492184840158  0.4997998167756302  0.6775913805586509  1.0000
  O   O82       1.0  0.1253805724754817  0.5042245638925246  0.9322497659996405  1.0000
  O   O83       1.0  0.45871385769799755  0.5042247671852417  0.9322506704127818  1.0000
  O   O84       1.0  0.7920471410506816  0.5042245486727599  0.9322499364090517  1.0000
  O   O85       1.0  0.12532436582200446  0.7520945670262026  0.17756202754273584  1.0000
  O   O86       1.0  0.45865771117760923  0.752094753931037  0.17756232864078308  1.0000
  O   O87       1.0  0.7919909624993617  0.7520950046235184  0.1775619103325805  1.0000
  O   O88       1.0  0.12339488185966302  0.7458711641698088  0.4293932966282111  1.0000
  O   O89       1.0  0.4567283377114785  0.7458713643917911  0.42939318167321827  1.0000
  O   O90       1.0  0.7900615292689764  0.7458713640172581  0.4293931736905765  1.0000
  O   O91       1.0  0.12441498526179394  0.7494759976422622  0.6871879119512447  1.0000
  O   O92       1.0  0.4577481744776308  0.7494762330481252  0.6871881618151524  1.0000
  O   O93       1.0  0.7910814653714408  0.7494758703969018  0.6871880939958046  1.0000
  O   O94       1.0  0.12455658090980799  0.7546733632189705  0.9258557729391991  1.0000
  O   O95       1.0  0.45789003738350464  0.7546730051953071  0.9258554038706311  1.0000
  O   O96       1.0  0.7912232798424883  0.7546732369048553  0.925854980862904  1.0000
  O   O97       1.0  0.2082883056384556  0.0012245746922210329  0.1791638982396671  1.0000
  O   O98       1.0  0.5416213439469363  0.001224571105046705  0.17916397087546934  1.0000
  O   O99       1.0  0.8749549271746963  0.0012247974638223823  0.1791635820844715  1.0000
  O   O100      1.0  0.20723692498554114  0.998540604537147  0.43063751969156033  1.0000
  O   O101      1.0  0.5405702950736679  0.9985407250150501  0.43063758801976454  1.0000
  O   O102      1.0  0.8739035475546091  0.998540645374366  0.43063733045013686  1.0000
  O   O103      1.0  0.21025912469489694  0.9970451492146626  0.6740256165144336  1.0000
  O   O104      1.0  0.54359255291594  0.9970449988063771  0.6740253929823936  1.0000
  O   O105      1.0  0.8769257559237635  0.9970450598344606  0.6740255197836206  1.0000
  O   O106      1.0  0.208042554853751  0.004429276939694866  0.9328179781209132  1.0000
  O   O107      1.0  0.541375933471325  0.004429562136132233  0.9328176481488012  1.0000
  O   O108      1.0  0.8747093427999808  0.004429601942041881  0.9328177603587349  1.0000
  O   O109      1.0  0.20729249293240662  0.24885327698083345  0.18563279667392588  1.0000
  O   O110      1.0  0.5406257654220966  0.24885308071383347  0.18563311755655512  1.0000
  O   O111      1.0  0.8739591416943576  0.24885345109519816  0.18563316233861735  1.0000
  O   O112      1.0  0.20809259661520316  0.24990039251647375  0.42769836610961826  1.0000
  O   O113      1.0  0.5414259157718303  0.2499006421802435  0.4276985573440126  1.0000
  O   O114      1.0  0.8747591986364637  0.24990055911246306  0.42769804144498136  1.0000
  O   O115      1.0  0.21035633994443825  0.25170530058001933  0.6765968832167492  1.0000
  O   O116      1.0  0.5436896608421969  0.25170533505307885  0.6765971453611692  1.0000
  O   O117      1.0  0.8770229848430618  0.25170500392298367  0.676596970706942  1.0000
  O   O118      1.0  0.20759387555109032  0.251047141700321  0.9286917268437355  1.0000
  O   O119      1.0  0.5409273294838539  0.25104708266925296  0.9286916311939769  1.0000
  O   O120      1.0  0.8742605819988565  0.25104702898392184  0.9286914037220204  1.0000
  O   O121      1.0  0.20556356552414998  0.4981430086707839  0.174377891099966  1.0000
  O   O122      1.0  0.5388969567566462  0.49814291908357533  0.1743785798796999  1.0000
  O   O123      1.0  0.8722303324302596  0.4981428554706041  0.1743779962164897  1.0000
  O   O124      1.0  0.20935940142943651  0.49942928040148915  0.4301700896764605  1.0000
  O   O125      1.0  0.5426927978934277  0.4994296124999426  0.4301702102921928  1.0000
  O   O126      1.0  0.8760260790210351  0.499429406709311  0.4301701850597534  1.0000
  O   O127      1.0  0.2076234529606427  0.5017804175557222  0.6872168586050188  1.0000
  O   O128      1.0  0.5409568179533386  0.501780967991319  0.6872168463286222  1.0000
  O   O129      1.0  0.8742900501800511  0.5017806631559416  0.6872168895303393  1.0000
  O   O130      1.0  0.20997793236841206  0.5039153372973524  0.9272023166070044  1.0000
  O   O131      1.0  0.5433112976938598  0.5039151632612583  0.9272025114734158  1.0000
  O   O132      1.0  0.8766445991349645  0.5039153058149393  0.927202202489378  1.0000
  O   O133      1.0  0.2062577923955245  0.7499849712071704  0.1803209564736159  1.0000
  O   O134      1.0  0.5395911752836482  0.749984754757626  0.18032104808197674  1.0000
  O   O135      1.0  0.8729244901747024  0.749984979801463  0.1803208292305544  1.0000
  O   O136      1.0  0.20970616729146996  0.7483674130717607  0.42890655045006865  1.0000
  O   O137      1.0  0.543039840129149  0.7483672557416671  0.4289067546300137  1.0000
  O   O138      1.0  0.8763729925275218  0.7483673399082289  0.42890661708301864  1.0000
  O   O139      1.0  0.20854189473335272  0.7473250563843645  0.6821754941346228  1.0000
  O   O140      1.0  0.541875305509917  0.7473254472003845  0.6821755043468571  1.0000
  O   O141      1.0  0.87520852979015  0.7473252212719993  0.6821754584678741  1.0000
  O   O142      1.0  0.20942706035006967  0.7561885740379545  0.9313112698693744  1.0000
  O   O143      1.0  0.5427602537062587  0.7561888212793093  0.9313116776762363  1.0000
  O   O144      1.0  0.8760936131515288  0.7561887870671959  0.9313111365823843  1.0000
  O   O145      1.0  0.29041807396508373  0.9974723191109371  0.17861491444208313  1.0000
  O   O146      1.0  0.6237515736573218  0.9974723328652513  0.17861502604833696  1.0000
  O   O147      1.0  0.9570848137458512  0.9974722712911419  0.1786149365837876  1.0000
  O   O148      1.0  0.2921336621307994  0.00017969099930102662  0.43330939700384535  1.0000
  O   O149      1.0  0.6254669848830873  0.00017970952048450674  0.43330953754739643  1.0000
  O   O150      1.0  0.9588003548647359  0.0001798186686884639  0.43330943503467273  1.0000
  O   O151      1.0  0.2914260141963232  0.0018726230446429227  0.6794583668023567  1.0000
  O   O152      1.0  0.6247594198583534  0.0018728625625977426  0.6794580956606977  1.0000
  O   O153      1.0  0.9580926857816664  0.0018723673863335563  0.6794584665328701  1.0000
  O   O154      1.0  0.29283284404114085  0.004305006928272096  0.9265228721380975  1.0000
  O   O155      1.0  0.6261661276223539  0.004305216691999677  0.9265227943328518  1.0000
  O   O156      1.0  0.9594994465487279  0.004305084864075397  0.9265229118158652  1.0000
  O   O157      1.0  0.29098074847155264  0.24947269941441122  0.17801922776196713  1.0000
  O   O158      1.0  0.6243140831027637  0.24947276659074585  0.17801931489895717  1.0000
  O   O159      1.0  0.9576472592133667  0.24947251422848585  0.17801889415523356  1.0000
  O   O160      1.0  0.2919980984584133  0.2487634353556161  0.4261952905487288  1.0000
  O   O161      1.0  0.6253314949011758  0.24876341698035065  0.4261956479848486  1.0000
  O   O162      1.0  0.9586647813746212  0.24876328341989395  0.4261953546569953  1.0000
  O   O163      1.0  0.2906819200770818  0.2509304854118604  0.6777018927152714  1.0000
  O   O164      1.0  0.6240153740704922  0.25093062904180713  0.6777019877347177  1.0000
  O   O165      1.0  0.9573486084462939  0.2509302512128709  0.6777022182093545  1.0000
  O   O166      1.0  0.29257117523133874  0.25195919393740296  0.9317815716980345  1.0000
  O   O167      1.0  0.6259045092673344  0.25195918468016487  0.931781510521143  1.0000
  O   O168      1.0  0.9592378840696957  0.25195926841492633  0.931781493131242  1.0000
  O   O169      1.0  0.2910038236617718  0.498017601696571  0.17626416238278883  1.0000
  O   O170      1.0  0.6243372026751344  0.49801740286065277  0.1762640896821886  1.0000
  O   O171      1.0  0.9576704148940018  0.4980177110718464  0.1762640078682436  1.0000
  O   O172      1.0  0.29215989955797067  0.49899203490648036  0.4310970756160832  1.0000
  O   O173      1.0  0.6254932304686872  0.4989921054979583  0.43109694772737495  1.0000
  O   O174      1.0  0.9588265954377388  0.4989922396765384  0.4310968145620607  1.0000
  O   O175      1.0  0.2926852975014491  0.49940931079789996  0.689101490797458  1.0000
  O   O176      1.0  0.6260185608423857  0.499409352136016  0.6891014702559854  1.0000
  O   O177      1.0  0.9593519307456221  0.49940934483532456  0.6891010248556251  1.0000
  O   O178      1.0  0.29021524206597127  0.5034742134543851  0.9258269581820991  1.0000
  O   O179      1.0  0.6235485259180505  0.5034742187844099  0.9258270056126741  1.0000
  O   O180      1.0  0.9568818936757996  0.5034745034233785  0.925826663196653  1.0000
  O   O181      1.0  0.2905714015085323  0.7479544092295828  0.18380634590919678  1.0000
  O   O182      1.0  0.6239047771876771  0.7479544953110961  0.18380612694149961  1.0000
  O   O183      1.0  0.9572380604315094  0.7479548139807246  0.1838061748653849  1.0000
  O   O184      1.0  0.292958862607669  0.7526198517491743  0.4245902532499874  1.0000
  O   O185      1.0  0.6262924028816723  0.7526198563805373  0.4245899715503355  1.0000
  O   O186      1.0  0.9596255759652104  0.7526198246087507  0.424589867193262  1.0000
  O   O187      1.0  0.29370188853142265  0.7477104735699347  0.6772902974122245  1.0000
  O   O188      1.0  0.6270350896538806  0.7477102917697215  0.6772901088563872  1.0000
  O   O189      1.0  0.960368459206643  0.7477102822498541  0.6772902189193051  1.0000
  O   O190      1.0  0.2910869581934836  0.7548747968591535  0.9309658911424978  1.0000
  O   O191      1.0  0.6244201799632316  0.7548747794115205  0.9309664113624099  1.0000
  O   O192      1.0  0.9577534137937482  0.7548750615219394  0.930965903711368  1.0000
  O   O193      1.0  0.040849966443005994  0.10699932299448849  0.0527926633519679  1.0000
  O   O194      1.0  0.3741835749317892  0.1069994986198936  0.052792818751220126  1.0000
  O   O195      1.0  0.7075167483980587  0.10699874505784643  0.05279263072513364  1.0000
  O   O196      1.0  0.04341876509571949  0.11359109214234686  0.3019940699328144  1.0000
  O   O197      1.0  0.3767523423881624  0.11359207959078643  0.30199410731926873  1.0000
  O   O198      1.0  0.7100860838268512  0.11359335206306323  0.3019942101326561  1.0000
  O   O199      1.0  0.04428928616522688  0.10835840281559488  0.552309895457748  1.0000
  O   O200      1.0  0.37762259173949175  0.10835873181339525  0.5523097593228131  1.0000
  O   O201      1.0  0.710955951281951  0.10835821778453557  0.5523099564872918  1.0000
  O   O202      1.0  0.03889336027769153  0.11588674252968513  0.8018982707932923  1.0000
  O   O203      1.0  0.37222675055401  0.11588637889409699  0.8018980001523672  1.0000
  O   O204      1.0  0.7055599544243145  0.11588701404671849  0.8018979730185144  1.0000
  O   O205      1.0  0.04730320825884417  0.3717961220756323  0.05095989597365617  1.0000
  O   O206      1.0  0.3806364232673894  0.3717957655496961  0.05096009512675404  1.0000
  O   O207      1.0  0.713969608509695  0.3717955770798541  0.050959604752739786  1.0000
  O   O208      1.0  0.043376047881922696  0.3794474457562343  0.30063328715116716  1.0000
  O   O209      1.0  0.3767088096041188  0.3794469325952671  0.3006330703808924  1.0000
  O   O210      1.0  0.7100417727417018  0.37944578199077467  0.30063269058712505  1.0000
  O   O211      1.0  0.044634652180864695  0.36507127671844686  0.5496939317375888  1.0000
  O   O212      1.0  0.3779679413096955  0.36507116458558514  0.5496939377999971  1.0000
  O   O213      1.0  0.7113012616530114  0.36507053992199456  0.5496939781601298  1.0000
  O   O214      1.0  0.04215369909550112  0.3781792236073578  0.8011047793974502  1.0000
  O   O215      1.0  0.3754870723129612  0.3781793125382541  0.8011050764435986  1.0000
  O   O216      1.0  0.7088202729528155  0.3781794038677802  0.8011046997967107  1.0000
  O   O217      1.0  0.039600268494942595  0.6056590806496994  0.05352166122652676  1.0000
  O   O218      1.0  0.37293358871893845  0.6056593784099669  0.0535218038136937  1.0000
  O   O219      1.0  0.7062670496795624  0.6056585966813097  0.0535217656375543  1.0000
  O   O220      1.0  0.041655612898175993  0.6006806705312056  0.3053662695754598  1.0000
  O   O221      1.0  0.374989130183744  0.6006803225690155  0.3053662515841136  1.0000
  O   O222      1.0  0.7083223025477043  0.6006800865179277  0.3053659410557485  1.0000
  O   O223      1.0  0.03913337755884166  0.6058737441826276  0.5519184282190297  1.0000
  O   O224      1.0  0.37246673240141837  0.6058736398779638  0.5519184208514534  1.0000
  O   O225      1.0  0.7057999965665728  0.6058734838111988  0.5519181283905101  1.0000
  O   O226      1.0  0.045559394606537316  0.6087093297223443  0.8035651492411999  1.0000
  O   O227      1.0  0.3788914242530492  0.6087054679186272  0.8035648608160406  1.0000
  O   O228      1.0  0.7122250177097724  0.6087062285734951  0.8035647687367373  1.0000
  O   O229      1.0  0.03920928344415865  0.8620481511934206  0.050106745446085614  1.0000
  O   O230      1.0  0.37254254311673757  0.8620479400330809  0.05010609331998651  1.0000
  O   O231      1.0  0.7058759348194978  0.8620481460609166  0.05010636166449124  1.0000
  O   O232      1.0  0.046603172864024024  0.8751647776363096  0.3010480159152647  1.0000
  O   O233      1.0  0.3799370173161877  0.875166066160376  0.3010482812699723  1.0000
  O   O234      1.0  0.7132703434945286  0.8751657623735072  0.3010481588996469  1.0000
  O   O235      1.0  0.03627063442989362  0.8723340016761173  0.5520486717072187  1.0000
  O   O236      1.0  0.36960382068167397  0.872334586340387  0.5520487591409473  1.0000
  O   O237      1.0  0.7029375556955586  0.8723337321008683  0.552048505484034  1.0000
  O   O238      1.0  0.046659963258653576  0.8773235578377693  0.8015994774036204  1.0000
  O   O239      1.0  0.3799937308937346  0.8773243685429767  0.8015994190096513  1.0000
  O   O240      1.0  0.7133266441009241  0.8773255091425204  0.8015997317555925  1.0000
  O   O241      1.0  0.12181410842127469  0.10882305365682655  0.053981656306051416  1.0000
  O   O242      1.0  0.4551475589662349  0.10882316405391528  0.053981832287210395  1.0000
  O   O243      1.0  0.7884807465339018  0.10882346542045018  0.05398137969683325  1.0000
  O   O244      1.0  0.13202799142709518  0.12851606570987736  0.3015308527279491  1.0000
  O   O245      1.0  0.4653614437292117  0.12851591363749862  0.301530880937959  1.0000
  O   O246      1.0  0.7986946215440658  0.1285160760898594  0.3015306498153825  1.0000
  O   O247      1.0  0.12379259830203962  0.11018475485604139  0.5510982962953954  1.0000
  O   O248      1.0  0.45712594051601996  0.11018497556692201  0.5510981713331212  1.0000
  O   O249      1.0  0.7904592982427981  0.11018487634094247  0.5510982053595411  1.0000
  O   O250      1.0  0.12606741893069565  0.10018730414525764  0.8042896379477434  1.0000
  O   O251      1.0  0.4594006969584004  0.10018707760827848  0.8042900052928317  1.0000
  O   O252      1.0  0.7927338409099844  0.10018707349504  0.8042898204985083  1.0000
  O   O253      1.0  0.1190614453067123  0.36994245418375943  0.05170081541308398  1.0000
  O   O254      1.0  0.4523948598452914  0.36994293824466323  0.05170145364037482  1.0000
  O   O255      1.0  0.7857280896607988  0.3699424972982267  0.05170137176484574  1.0000
  O   O256      1.0  0.12098572406949286  0.3653031521187883  0.30222804395098785  1.0000
  O   O257      1.0  0.4543189895224216  0.3653037746440417  0.3022281091242586  1.0000
  O   O258      1.0  0.7876520703205312  0.36530303179256257  0.30222788636642023  1.0000
  O   O259      1.0  0.13291443382604295  0.37469129372500015  0.5519560209058041  1.0000
  O   O260      1.0  0.4662476655110908  0.37469112800324816  0.5519557528270659  1.0000
  O   O261      1.0  0.7995809128811888  0.37469128277809827  0.5519557377355253  1.0000
  O   O262      1.0  0.12197937091354327  0.3912761178883765  0.8012698268688462  1.0000
  O   O263      1.0  0.4553129062252634  0.3912761520042908  0.8012702952460102  1.0000
  O   O264      1.0  0.7886460653836802  0.39127616967942136  0.8012698274768144  1.0000
  O   O265      1.0  0.12881367409942865  0.6156676624348442  0.052991823542773306  1.0000
  O   O266      1.0  0.4621471734146652  0.6156693212684242  0.05299177205138778  1.0000
  O   O267      1.0  0.795480311042832  0.6156684625364137  0.05299163313640239  1.0000
  O   O268      1.0  0.12302716755790369  0.5995188208982678  0.3054409419501366  1.0000
  O   O269      1.0  0.45636030613657513  0.5995188323130887  0.3054411747118937  1.0000
  O   O270      1.0  0.789693713559787  0.599518425675041  0.3054409662064191  1.0000
  O   O271      1.0  0.13420508570649203  0.6247511485071143  0.5578138145129602  1.0000
  O   O272      1.0  0.46753847730562265  0.6247517876067106  0.5578138760068823  1.0000
  O   O273      1.0  0.8008718424542391  0.6247512562876207  0.5578134392306107  1.0000
  O   O274      1.0  0.12564938215995394  0.6130152999254292  0.8038723994896482  1.0000
  O   O275      1.0  0.4589828481215358  0.6130146969302229  0.803872348610455  1.0000
  O   O276      1.0  0.792316098368101  0.6130147026370517  0.8038720881366157  1.0000
  O   O277      1.0  0.12896970368047928  0.8690499045798472  0.05395538667859383  1.0000
  O   O278      1.0  0.4623029591460715  0.8690497915690141  0.05395531906919278  1.0000
  O   O279      1.0  0.7956361739253299  0.8690501578077121  0.05395538793495969  1.0000
  O   O280      1.0  0.12423793762487713  0.8568793279585303  0.30237765926426746  1.0000
  O   O281      1.0  0.45757129595187324  0.8568794576311304  0.30237764672645334  1.0000
  O   O282      1.0  0.7909046304827102  0.8568793179009025  0.302377665975862  1.0000
  O   O283      1.0  0.1256839846096645  0.8477886313181162  0.5544742632483316  1.0000
  O   O284      1.0  0.4590174170379384  0.8477885185024132  0.554474158353998  1.0000
  O   O285      1.0  0.7923506354433235  0.847788466090459  0.5544744326696089  1.0000
  O   O286      1.0  0.1299464751596671  0.8860058859691798  0.8047340364036115  1.0000
  O   O287      1.0  0.46327995474783207  0.8860062576361704  0.8047345512057599  1.0000
  O   O288      1.0  0.7966131164992146  0.8860065860410092  0.804734086892893  1.0000
  O   O289      1.0  0.21370898564378876  0.12161368311006435  0.05467955306247537  1.0000
  O   O290      1.0  0.5470420597867012  0.12161391900061416  0.05467971589989441  1.0000
  O   O291      1.0  0.8803761765249384  0.12161544186252722  0.05467966863525467  1.0000
  O   O292      1.0  0.20789328945535002  0.1048113599564234  0.30303807021720564  1.0000
  O   O293      1.0  0.5412267183264097  0.10481127240097461  0.30303831434695916  1.0000
  O   O294      1.0  0.8745599713084391  0.10481119379009035  0.303037983261933  1.0000
  O   O295      1.0  0.21692640159726734  0.1277731562689916  0.5523095701821961  1.0000
  O   O296      1.0  0.550259796880299  0.12777310886169413  0.5523096312240613  1.0000
  O   O297      1.0  0.8835931014125322  0.12777326830961605  0.5523095029100727  1.0000
  O   O298      1.0  0.2051397079593332  0.10779239748627249  0.8033522981791176  1.0000
  O   O299      1.0  0.5384731349210978  0.10779217047472041  0.803351982092365  1.0000
  O   O300      1.0  0.8718063416312298  0.10779203932231715  0.8033521055235587  1.0000
  O   O301      1.0  0.20810600296809167  0.35295148661425774  0.052611684311974716  1.0000
  O   O302      1.0  0.5414395087993007  0.35295090275470237  0.05261225627953868  1.0000
  O   O303      1.0  0.8747728394084724  0.3529505644168803  0.05261196235497467  1.0000
  O   O304      1.0  0.21604970499188766  0.37822165169895905  0.3023682132117577  1.0000
  O   O305      1.0  0.5493831298198321  0.378221461902173  0.3023683183992871  1.0000
  O   O306      1.0  0.8827165610503807  0.3782219789168203  0.30236801673473535  1.0000
  O   O307      1.0  0.2121773372591382  0.38357871791554066  0.556425862192137  1.0000
  O   O308      1.0  0.5455106339375818  0.383578957485514  0.5564257313782414  1.0000
  O   O309      1.0  0.8788438641593882  0.3835789740951931  0.5564257678017791  1.0000
  O   O310      1.0  0.2095925281169957  0.35813776373948164  0.8025419337503528  1.0000
  O   O311      1.0  0.5429258331255727  0.35813823549186286  0.8025417457646686  1.0000
  O   O312      1.0  0.876259215860735  0.35813806844157686  0.8025418638672507  1.0000
  O   O313      1.0  0.2000954081769379  0.6281439659415399  0.05343419077265588  1.0000
  O   O314      1.0  0.5334289429553408  0.6281438728298542  0.05343432419782942  1.0000
  O   O315      1.0  0.8667620990416934  0.6281438153925318  0.05343398463535509  1.0000
  O   O316      1.0  0.21229146414027267  0.6130383819581167  0.3037544905570978  1.0000
  O   O317      1.0  0.5456247811498057  0.6130384271321512  0.30375487149189095  1.0000
  O   O318      1.0  0.8789581801075911  0.6130386414615776  0.30375464898342325  1.0000
  O   O319      1.0  0.20503446000727396  0.6083137590614631  0.5578795149182239  1.0000
  O   O320      1.0  0.5383679050663498  0.6083141299022046  0.5578794522124048  1.0000
  O   O321      1.0  0.871701069836929  0.6083138246998412  0.5578793967225486  1.0000
  O   O322      1.0  0.21262423534464628  0.6406021914029214  0.8052275644013697  1.0000
  O   O323      1.0  0.5459576110593889  0.6406019836421739  0.8052275798102018  1.0000
  O   O324      1.0  0.8792906414723037  0.6406021879607111  0.8052272447502614  1.0000
  O   O325      1.0  0.2077125557624408  0.8576083770390214  0.055685885424179925  1.0000
  O   O326      1.0  0.541045922156159  0.8576089333494769  0.0556858274214949  1.0000
  O   O327      1.0  0.8743791481165297  0.857608758076205  0.05568577886165845  1.0000
  O   O328      1.0  0.20575181904038414  0.8579069522090155  0.3028536958802604  1.0000
  O   O329      1.0  0.5390851861170673  0.8579074178228407  0.3028538481960196  1.0000
  O   O330      1.0  0.8724183533479963  0.8579068162861081  0.3028535959144271  1.0000
  O   O331      1.0  0.2083381973898396  0.8499123291623748  0.5525208689400555  1.0000
  O   O332      1.0  0.5416716341886708  0.849912638011419  0.5525207539450026  1.0000
  O   O333      1.0  0.8750050130483038  0.8499127874695449  0.5525206916189428  1.0000
  O   O334      1.0  0.2058832474311373  0.8673421696734496  0.805506194393616  1.0000
  O   O335      1.0  0.5392164738565746  0.8673419753217981  0.8055062827903398  1.0000
  O   O336      1.0  0.8725499387103364  0.8673422498857206  0.8055059469810375  1.0000
  O   O337      1.0  0.29072365003731104  0.10899105839960209  0.05258371891796331  1.0000
  O   O338      1.0  0.6240573407042713  0.10899136979640227  0.05258375238578911  1.0000
  O   O339      1.0  0.9573905423357567  0.1089911913992223  0.05258376707178257  1.0000
  O   O340      1.0  0.2915224646320442  0.10172716907660054  0.30302002686812474  1.0000
  O   O341      1.0  0.6248558015436833  0.10172660856173349  0.3030202966696149  1.0000
  O   O342      1.0  0.9581891644136629  0.10172664361686458  0.303020031582129  1.0000
  O   O343      1.0  0.28820934784152147  0.11399691694280145  0.5527933769503586  1.0000
  O   O344      1.0  0.6215425736094993  0.11399700617739177  0.5527933810035832  1.0000
  O   O345      1.0  0.9548761090354363  0.11399710297849555  0.5527935514132715  1.0000
  O   O346      1.0  0.3012969238950843  0.13203681782271728  0.8034355564674283  1.0000
  O   O347      1.0  0.6346302078509957  0.1320370760126315  0.8034352611004782  1.0000
  O   O348      1.0  0.9679636877762756  0.13203683721534742  0.8034354377374578  1.0000
  O   O349      1.0  0.289836305077404  0.3595966280069974  0.050329663534168595  1.0000
  O   O350      1.0  0.6231695479634235  0.35959605280831314  0.05032966860294574  1.0000
  O   O351      1.0  0.9565028913331538  0.3595968393485117  0.05032929813333509  1.0000
  O   O352      1.0  0.2902667924687043  0.3796464961915444  0.30071891019033764  1.0000
  O   O353      1.0  0.6236002745984743  0.379646656100878  0.3007189139276499  1.0000
  O   O354      1.0  0.9569336650621413  0.37964659629910164  0.3007187448809525  1.0000
  O   O355      1.0  0.2870021183336305  0.3690609856385472  0.555812392311717  1.0000
  O   O356      1.0  0.620335417232662  0.36906105232275677  0.5558123224419425  1.0000
  O   O357      1.0  0.9536687012346162  0.36906063327545474  0.5558121336706014  1.0000
  O   O358      1.0  0.2924451642381954  0.3530376792718265  0.8040297031274691  1.0000
  O   O359      1.0  0.62577846791249  0.35303756795347957  0.8040298549616788  1.0000
  O   O360      1.0  0.9591118425552686  0.3530375550515171  0.8040295979624172  1.0000
  O   O361      1.0  0.29234782661475084  0.60966517731844  0.052394521459869586  1.0000
  O   O362      1.0  0.6256811752765742  0.609665144310847  0.05239437873861853  1.0000
  O   O363      1.0  0.9590145457815269  0.6096654131453643  0.052394559270248726  1.0000
  O   O364      1.0  0.29074719379189623  0.5992689276857274  0.30530611828589066  1.0000
  O   O365      1.0  0.6240807133001199  0.5992691627383299  0.3053059104248789  1.0000
  O   O366      1.0  0.9574139943477397  0.5992691023143606  0.3053060525220547  1.0000
  O   O367      1.0  0.29386821773915695  0.5974158797999395  0.5570268353407205  1.0000
  O   O368      1.0  0.6272014823989739  0.5974159616514333  0.5570268567842578  1.0000
  O   O369      1.0  0.9605348027332761  0.5974161024813816  0.5570267294171762  1.0000
  O   O370      1.0  0.282991652119556  0.6326761981735195  0.8047093002364738  1.0000
  O   O371      1.0  0.6163245856383206  0.63267655155498  0.8047095602041047  1.0000
  O   O372      1.0  0.9496579733105617  0.6326762247258294  0.8047091548286568  1.0000
  O   O373      1.0  0.29251489083696164  0.8591429355066672  0.05385408419737518  1.0000
  O   O374      1.0  0.6258481362521106  0.8591436545218917  0.053854211451328717  1.0000
  O   O375      1.0  0.9591815792609275  0.8591431481554949  0.05385396831787596  1.0000
  O   O376      1.0  0.29799884860478726  0.8836796864529036  0.3010516121512119  1.0000
  O   O377      1.0  0.6313317696565228  0.8836794168233174  0.30105141552175624  1.0000
  O   O378      1.0  0.96466537766512  0.8836794631448196  0.3010516740196083  1.0000
  O   O379      1.0  0.2986019440507547  0.8739383523020104  0.5528680727244007  1.0000
  O   O380      1.0  0.6319351423954024  0.8739378360929236  0.5528682847655693  1.0000
  O   O381      1.0  0.9652688032460911  0.873938524710356  0.55286835697092  1.0000
  O   O382      1.0  0.2909346910289834  0.8555051090300023  0.8031431046605679  1.0000
  O   O383      1.0  0.6242681367604406  0.855505268961306  0.8031427009405938  1.0000
  O   O384      1.0  0.9576013185274149  0.8555052230804682  0.8031428291605982  1.0000
  O   O385      1.0  0.3320236301278884  0.1237912673954475  0.18067172018797345  1.0000
  O   O386      1.0  0.6653569924756553  0.12379121233688405  0.18067237673033215  1.0000
  O   O387      1.0  0.998690226004411  0.1237908551860723  0.18067167331684708  1.0000
  O   O388      1.0  0.33363480119717204  0.12781747784172037  0.4330975733013531  1.0000
  O   O389      1.0  0.6669681392215265  0.12781747128124107  0.43309750721337  1.0000
  O   O390      1.0  0.00030147497760713016  0.1278176305416355  0.4330976161354921  1.0000
  O   O391      1.0  0.3337228991195695  0.12317819596921852  0.6739183886797776  1.0000
  O   O392      1.0  0.6670562996676666  0.12317817985037438  0.6739182657175959  1.0000
  O   O393      1.0  0.0003896466844623969  0.12317778347793107  0.6739185330960522  1.0000
  O   O394      1.0  0.33371954890050953  0.13141483645684987  0.9371903466979371  1.0000
  O   O395      1.0  0.6670528068126467  0.13141513672420252  0.9371902361003304  1.0000
  O   O396      1.0  0.00038613815602439594  0.13141507887421314  0.9371906824373272  1.0000
  O   O397      1.0  0.3330084458717812  0.3706710274494747  0.1760728698289996  1.0000
  O   O398      1.0  0.6663419103267919  0.3706708131672804  0.17607245580825348  1.0000
  O   O399      1.0  0.999675142328621  0.37067059894855153  0.1760723344345692  1.0000
  O   O400      1.0  0.3330941832601537  0.3747074995540359  0.42459030049381763  1.0000
  O   O401      1.0  0.6664274629283681  0.3747073168805656  0.4245907333399019  1.0000
  O   O402      1.0  0.9997608715076332  0.3747074634316218  0.42459058186155224  1.0000
  O   O403      1.0  0.33393532180159163  0.37572403189459  0.6789061446370117  1.0000
  O   O404      1.0  0.6672686086746098  0.3757239126663635  0.6789060314488897  1.0000
  O   O405      1.0  0.0006018183028120294  0.37572407403787256  0.6789059792619321  1.0000
  O   O406      1.0  0.33307556504271285  0.38016903816757736  0.9296809095684926  1.0000
  O   O407      1.0  0.6664089566431025  0.38016929241220426  0.9296809061126526  1.0000
  O   O408      1.0  0.9997422299201418  0.38016954620780313  0.9296807369654505  1.0000
  O   O409      1.0  0.3323791889405773  0.6282413477175539  0.1838116954746392  1.0000
  O   O410      1.0  0.6657124906080076  0.6282411089028972  0.18381169653294974  1.0000
  O   O411      1.0  0.9990457746771335  0.6282413964899043  0.18381184387330737  1.0000
  O   O412      1.0  0.33337544671921265  0.623090460471898  0.4312575974780018  1.0000
  O   O413      1.0  0.666708805960703  0.6230906845696267  0.4312579347983291  1.0000
  O   O414      1.0  4.211638986961752e-05  0.6230905788644581  0.43125770520789614  1.0000
  O   O415      1.0  0.3339459920078887  0.622502196621434  0.6872485395255777  1.0000
  O   O416      1.0  0.6672793137511149  0.6225019495144053  0.6872486892106172  1.0000
  O   O417      1.0  0.0006126548839293644  0.6225023424501348  0.6872486576249346  1.0000
  O   O418      1.0  0.3328570621265328  0.6295263171774204  0.927214109605142  1.0000
  O   O419      1.0  0.6661903234178012  0.6295264907253372  0.92721393595793  1.0000
  O   O420      1.0  0.9995237377362334  0.6295270158306605  0.9272137292228849  1.0000
  O   O421      1.0  0.33221419721930473  0.8725528176132279  0.1784536749847125  1.0000
  O   O422      1.0  0.6655475442222853  0.8725528500917041  0.17845377713609556  1.0000
  O   O423      1.0  0.9988808435893434  0.8725527791278436  0.17845381541653427  1.0000
  O   O424      1.0  0.33471468048126835  0.8767311608684865  0.42846799682206144  1.0000
  O   O425      1.0  0.6680480296025861  0.8767316167602383  0.4284682724925256  1.0000
  O   O426      1.0  0.0013813277280028124  0.8767313461714505  0.42846833827949876  1.0000
  O   O427      1.0  0.33320794728123926  0.8782715347747887  0.6839945599366681  1.0000
  O   O428      1.0  0.6665413151580376  0.8782713038576588  0.6839939157167821  1.0000
  O   O429      1.0  0.9998747089573458  0.8782714246343611  0.6839939557095779  1.0000
  O   O430      1.0  0.3334042796806482  0.8766409884507512  0.9286976915518786  1.0000
  O   O431      1.0  0.6667373907261372  0.8766409123135761  0.9286977421650918  1.0000
  O   O432      1.0  7.086148428281369e-05  0.8766408610050791  0.9286970771075213  1.0000
  O   O433      1.0  0.0816597280947508  0.12186384618168923  0.18268906644472094  1.0000
  O   O434      1.0  0.41499308236296795  0.1218636968280541  0.18268897282847632  1.0000
  O   O435      1.0  0.7483263704154026  0.12186377060642252  0.1826884753446994  1.0000
  O   O436      1.0  0.08385662354514596  0.12663555052347292  0.4276648295716181  1.0000
  O   O437      1.0  0.4171899758714076  0.1266356596487872  0.4276645774416846  1.0000
  O   O438      1.0  0.7505233827633083  0.12663553418228984  0.4276647501460993  1.0000
  O   O439      1.0  0.08452808888923447  0.12740079591442333  0.6835135432598753  1.0000
  O   O440      1.0  0.4178613915475727  0.12740044765171415  0.6835136246196538  1.0000
  O   O441      1.0  0.7511947240703881  0.1274007976542738  0.6835135819460917  1.0000
  O   O442      1.0  0.08280242207332023  0.12503749268654352  0.9270573478127764  1.0000
  O   O443      1.0  0.4161358337456848  0.12503693844138586  0.9270571869804004  1.0000
  O   O444      1.0  0.7494691136413766  0.12503698658485918  0.9270571262531979  1.0000
  O   O445      1.0  0.08267931954575726  0.37096191941104906  0.18123695941042692  1.0000
  O   O446      1.0  0.41601273223811785  0.37096119624244045  0.18123689469819607  1.0000
  O   O447      1.0  0.7493459800612108  0.3709615367466088  0.18123661011771178  1.0000
  O   O448      1.0  0.0829187623577846  0.3723959312942375  0.43080178119121615  1.0000
  O   O449      1.0  0.41625213584543125  0.372396154700925  0.430801564124273  1.0000
  O   O450      1.0  0.7495853583859233  0.37239592888494516  0.4308012108303299  1.0000
  O   O451      1.0  0.08480510662098711  0.3731910931633045  0.6743776190314367  1.0000
  O   O452      1.0  0.41813846456327064  0.37319097905218773  0.6743776723693923  1.0000
  O   O453      1.0  0.7514717856924508  0.3731908220960373  0.6743778105023641  1.0000
  O   O454      1.0  0.08329163913903415  0.3795398214414313  0.9288879004695988  1.0000
  O   O455      1.0  0.4166250579450292  0.37953964204278895  0.9288888667587039  1.0000
  O   O456      1.0  0.7499583049354542  0.37953968171067515  0.9288881742012407  1.0000
  O   O457      1.0  0.08312997474169843  0.6278192385421016  0.17666023238192952  1.0000
  O   O458      1.0  0.4164634199178918  0.6278192245180994  0.1766602971575359  1.0000
  O   O459      1.0  0.7497966843423114  0.6278187648062377  0.17666043116250382  1.0000
  O   O460      1.0  0.08293315883316839  0.6236786501558965  0.4365513912018609  1.0000
  O   O461      1.0  0.4162665695465481  0.6236786287898382  0.43655199510449827  1.0000
  O   O462      1.0  0.7495996312021093  0.6236786090399029  0.4365516342470978  1.0000
  O   O463      1.0  0.08325005312689546  0.6257563487765377  0.67546582319485  1.0000
  O   O464      1.0  0.41658331497809303  0.6257568920101735  0.6754661413441355  1.0000
  O   O465      1.0  0.7499166569832295  0.6257565342251609  0.6754656647701479  1.0000
  O   O466      1.0  0.0834370799300923  0.6307653931122139  0.9357082744538906  1.0000
  O   O467      1.0  0.41677029551319994  0.630765228446306  0.9357073441274424  1.0000
  O   O468      1.0  0.7501036732041655  0.6307655851258274  0.935707339934472  1.0000
  O   O469      1.0  0.08255431589399469  0.873653858863473  0.17592196570125565  1.0000
  O   O470      1.0  0.41588760096687977  0.8736539290206503  0.17592193465048084  1.0000
  O   O471      1.0  0.7492209233107046  0.8736541759853437  0.17592189076466552  1.0000
  O   O472      1.0  0.08405362953424694  0.8768198117294642  0.43320198859428477  1.0000
  O   O473      1.0  0.4173869863974906  0.8768202346521144  0.43320223199257235  1.0000
  O   O474      1.0  0.7507203687358028  0.876820200346314  0.43320212523936924  1.0000
  O   O475      1.0  0.08282081130478025  0.8698725173661627  0.6781827123250661  1.0000
  O   O476      1.0  0.41615411241485734  0.8698721008063282  0.6781825297618442  1.0000
  O   O477      1.0  0.7494874459865388  0.8698723788756403  0.6781830593890442  1.0000
  O   O478      1.0  0.08354330456231729  0.8828984950816008  0.9291877913012817  1.0000
  O   O479      1.0  0.4168767960698177  0.8828986853126408  0.9291881899468298  1.0000
  O   O480      1.0  0.750209896208274  0.8828984389632439  0.929187062210686  1.0000
  O   O481      1.0  0.1659814268605721  0.125065568121871  0.17829096370338035  1.0000
  O   O482      1.0  0.49931455552637855  0.12506613691755278  0.17829176577257727  1.0000
  O   O483      1.0  0.8326479598272796  0.12506605938068172  0.17829075433838706  1.0000
  O   O484      1.0  0.16678366163599473  0.1247012290161316  0.43231446623171244  1.0000
  O   O485      1.0  0.5001170035795832  0.12470128175020424  0.43231412358794424  1.0000
  O   O486      1.0  0.8334502438306025  0.12470102957485708  0.43231416870886336  1.0000
  O   O487      1.0  0.1681516234522039  0.1255901272038652  0.6750503489924425  1.0000
  O   O488      1.0  0.5014849120410345  0.12559019412530348  0.6750501880022554  1.0000
  O   O489      1.0  0.8348182198925834  0.12559008317820358  0.6750501861585291  1.0000
  O   O490      1.0  0.16620548273624322  0.12818283920550175  0.9344726130217303  1.0000
  O   O491      1.0  0.4995388749710802  0.12818325512520984  0.9344723033890111  1.0000
  O   O492      1.0  0.8328721532450629  0.12818378748152442  0.9344722685415636  1.0000
  O   O493      1.0  0.16485420793288225  0.36985552394401255  0.1798680542181374  1.0000
  O   O494      1.0  0.4981876334782401  0.36985539110174803  0.1798681506909504  1.0000
  O   O495      1.0  0.8315208641145279  0.3698551370518536  0.17986771939155113  1.0000
  O   O496      1.0  0.1672440394061164  0.3720384777612296  0.424554950688622  1.0000
  O   O497      1.0  0.5005774019157442  0.372039095942262  0.4245550669141214  1.0000
  O   O498      1.0  0.8339106522324088  0.37203905278366356  0.42455486072691434  1.0000
  O   O499      1.0  0.1678629108117346  0.3731039416208945  0.6826832627955002  1.0000
  O   O500      1.0  0.5011962825644991  0.37310418095847153  0.6826832597264377  1.0000
  O   O501      1.0  0.8345295102558347  0.37310413418844385  0.6826835600119907  1.0000
  O   O502      1.0  0.16677788524897794  0.3789177259697517  0.9277577123657484  1.0000
  O   O503      1.0  0.5001112327675519  0.37891782691325443  0.9277581384077714  1.0000
  O   O504      1.0  0.8334444845935985  0.37891790505374356  0.9277577993627791  1.0000
  O   O505      1.0  0.16549556411273614  0.6282704322247262  0.18684852660501877  1.0000
  O   O506      1.0  0.4988288667521931  0.6282703287135428  0.18684851389854593  1.0000
  O   O507      1.0  0.8321621899903857  0.6282702911832098  0.18684812741130816  1.0000
  O   O508      1.0  0.16693912842013445  0.6231743239187847  0.42817762741305926  1.0000
  O   O509      1.0  0.5002727057415985  0.6231748066601932  0.42817719609682  1.0000
  O   O510      1.0  0.8336058186633682  0.6231747445192366  0.4281772099376093  1.0000
  O   O511      1.0  0.16685511229568306  0.624316079848283  0.6906474203110569  1.0000
  O   O512      1.0  0.5001884465243883  0.6243162468120634  0.6906474801854787  1.0000
  O   O513      1.0  0.8335216994346205  0.624316180695899  0.6906475917647115  1.0000
  O   O514      1.0  0.1671283833900189  0.6274827681694317  0.9273896536510744  1.0000
  O   O515      1.0  0.5004617563424324  0.627482652591198  0.9273899403828105  1.0000
  O   O516      1.0  0.8337950304054903  0.6274826336157198  0.9273896235037195  1.0000
  O   O517      1.0  0.1663301412521908  0.8775890754306229  0.1831934957501771  1.0000
  O   O518      1.0  0.49966344828825004  0.8775890028654351  0.18319338903290805  1.0000
  O   O519      1.0  0.8329967361786976  0.8775894060748758  0.18319364603966692  1.0000
  O   O520      1.0  0.16582846020564845  0.8739083670323454  0.43176439118511367  1.0000
  O   O521      1.0  0.4991619257252052  0.8739082644354133  0.4317640705164708  1.0000
  O   O522      1.0  0.8324952148927748  0.8739082333332003  0.43176402831366884  1.0000
  O   O523      1.0  0.16727335916623423  0.8704187297642288  0.6785960144694528  1.0000
  O   O524      1.0  0.5006067194831114  0.870418865848513  0.6785960854525994  1.0000
  O   O525      1.0  0.8339400958981298  0.8704189680472302  0.6785960337875969  1.0000
  O   O526      1.0  0.16680717126646064  0.8819894201196803  0.9336369195855738  1.0000
  O   O527      1.0  0.5001405523574273  0.8819894024436745  0.9336371218752965  1.0000
  O   O528      1.0  0.8334737974293364  0.8819898814444332  0.9336369219050762  1.0000
  O   O529      1.0  0.2498433025722964  0.12585033175988455  0.1853968963654318  1.0000
  O   O530      1.0  0.5831765831108646  0.12585019410880385  0.18539581754281878  1.0000
  O   O531      1.0  0.9165099103590659  0.1258506166258365  0.18539662924419745  1.0000
  O   O532      1.0  0.25008463416121135  0.12079959759782381  0.42777346804500327  1.0000
  O   O533      1.0  0.5834179592190859  0.12079965886400205  0.4277736293793863  1.0000
  O   O534      1.0  0.9167511904744007  0.12079973048358189  0.4277730706385159  1.0000
  O   O535      1.0  0.25020368913168856  0.1260655734237124  0.6861468333929223  1.0000
  O   O536      1.0  0.5835370818587005  0.12606535578729605  0.6861465640468236  1.0000
  O   O537      1.0  0.9168704040052413  0.12606517419762198  0.6861466588949271  1.0000
  O   O538      1.0  0.2505976616721331  0.12822008122603276  0.9257901537944386  1.0000
  O   O539      1.0  0.5839310815374018  0.12822004914835783  0.9257901816983405  1.0000
  O   O540      1.0  0.9172643762943976  0.1282203966493469  0.9257902304103435  1.0000
  O   O541      1.0  0.24896874602002297  0.3709022110904217  0.17680130318421888  1.0000
  O   O542      1.0  0.582302046254459  0.3709023476603328  0.1768016665207534  1.0000
  O   O543      1.0  0.9156353946321768  0.370902204522136  0.17680140227817176  1.0000
  O   O544      1.0  0.25044976835188626  0.37434117220406343  0.4326084640910263  1.0000
  O   O545      1.0  0.5837831092369785  0.3743412338036174  0.4326086409922091  1.0000
  O   O546      1.0  0.9171164196795203  0.37434109702224005  0.43260842132684046  1.0000
  O   O547      1.0  0.2505227353457079  0.38071129441552665  0.6860681636292985  1.0000
  O   O548      1.0  0.5838560789211477  0.38071129911350965  0.6860680568967926  1.0000
  O   O549      1.0  0.9171893886466487  0.3807110395432307  0.6860681775547225  1.0000
  O   O550      1.0  0.24986796021539012  0.37504187074171774  0.9322145758589018  1.0000
  O   O551      1.0  0.583201242947908  0.37504174154164444  0.9322148827132686  1.0000
  O   O552      1.0  0.9165345354010047  0.3750420165415476  0.9322145154346241  1.0000
  O   O553      1.0  0.2482288527678647  0.6275676301334016  0.17593520348982708  1.0000
  O   O554      1.0  0.581562299929187  0.6275677978402823  0.17593520522827708  1.0000
  O   O555      1.0  0.9148955571318784  0.6275678421850517  0.1759350135646084  1.0000
  O   O556      1.0  0.2505869695417494  0.6287940199047438  0.43578737593948086  1.0000
  O   O557      1.0  0.5839203682710326  0.628793954575893  0.4357875455218436  1.0000
  O   O558      1.0  0.9172537260474453  0.6287940612784106  0.435787440045146  1.0000
  O   O559      1.0  0.25054869213331704  0.6190706926167441  0.677447105010633  1.0000
  O   O560      1.0  0.5838820230591256  0.6190710226570214  0.6774473265253105  1.0000
  O   O561      1.0  0.9172153432987139  0.6190709353441287  0.6774465877526066  1.0000
  O   O562      1.0  0.24975251554029074  0.6315789496571542  0.9385711372006678  1.0000
  O   O563      1.0  0.5830858188415939  0.6315790823921664  0.9385711274487818  1.0000
  O   O564      1.0  0.9164191641691272  0.6315790566498117  0.9385705836774013  1.0000
  O   O565      1.0  0.2489436880901378  0.8712846299649835  0.18341582741588222  1.0000
  O   O566      1.0  0.5822769023922383  0.871284963581934  0.18341583521591995  1.0000
  O   O567      1.0  0.9156102206440027  0.8712849859702007  0.18341569684791867  1.0000
  O   O568      1.0  0.2503149358245169  0.8769610104927411  0.42431753556096796  1.0000
  O   O569      1.0  0.5836482586679819  0.876961353332462  0.42431779372219036  1.0000
  O   O570      1.0  0.9169816082212411  0.8769614959923303  0.42431739804707896  1.0000
  O   O571      1.0  0.2508780361089851  0.8744796417961729  0.6787350991339308  1.0000
  O   O572      1.0  0.5842114699844307  0.8744797493269235  0.6787349763919115  1.0000
  O   O573      1.0  0.9175447256254708  0.8744795349008138  0.6787349174804969  1.0000
  O   O574      1.0  0.2501646217465559  0.8818589117028037  0.9319615214856973  1.0000
  O   O575      1.0  0.5834979944893155  0.8818588893402508  0.9319614921636235  1.0000
  O   O576      1.0  0.9168313283941939  0.881859127998324  0.9319615776036317  1.0000
